19
Iteration:  2958
 C         0.337534         0.456366        -1.395395
 C        -0.757918         0.008800        -0.520397
 C        -1.699111        -0.197776         0.175154
 C        -2.977740        -0.007935         1.026110
 O        -2.773782         0.257393         2.436840
 C        -3.796075         1.063041         0.393573
 C        -4.148931         0.901067        -1.035527
 C        -3.366849         1.791306        -1.937238
 O        -4.713222         1.951953        -1.661253
 H         0.287950         1.536325        -1.655080
 H         1.281688         0.606287        -0.804972
 H         0.473142        -0.058503        -2.349940
 H        -3.523400        -0.960927         0.996549
 H        -3.624559        -0.131050         2.825291
 H        -4.835041         1.188869         0.929891
 H        -3.267281         2.004969         0.377357
 H        -4.309787        -0.114902        -1.454314
 H        -2.737816         2.579541        -1.473665
 H        -3.021656         1.398164        -2.989339
