19
Iteration:  3562
 C         1.402576        -0.355293         0.462921
 C         0.032936        -0.072306         0.271027
 C        -1.083969         0.201174         0.001762
 C        -2.517967         0.191283        -0.311829
 O        -3.130294        -0.175280         0.927431
 C        -2.889332         1.593854        -0.832775
 C        -4.460326         1.977109        -0.543130
 C        -5.510667         0.930474        -0.785000
 O        -5.499437         2.184230        -1.586200
 H         1.437768        -1.344669         1.005140
 H         1.856497        -0.384770        -0.459230
 H         1.771490         0.418042         1.134509
 H        -2.731532        -0.602234        -1.045433
 H        -2.682167         0.387509         1.647780
 H        -2.098716         2.233724        -0.589699
 H        -2.851129         1.641040        -1.904406
 H        -4.733143         2.713949         0.225067
 H        -5.262613        -0.043713        -1.289175
 H        -6.316400         0.831630        -0.104459
