19
Iteration:  2107charge 0 multiplicity 1
 C         1.461699        -0.113416        -0.043209
 C         0.023008        -0.014553        -0.069314
 C        -1.149069         0.115108         0.138663
 C        -2.665821         0.172722         0.168378
 O        -3.042070        -0.041204         1.518228
 C        -3.185095         1.430608        -0.484177
 C        -4.634025         1.541058        -0.501614
 C        -5.419184         0.994097        -1.556226
 O        -5.095497         2.395064        -1.573839
 H         1.780186        -0.365711         0.981065
 H         1.787858        -0.857735        -0.791750
 H         2.088126         0.759577        -0.288540
 H        -2.889742        -0.760975        -0.436465
 H        -3.494540        -0.904222         1.686597
 H        -2.827293         2.320117         0.033063
 H        -2.710212         1.398918        -1.522097
 H        -5.171404         1.619996         0.429779
 H        -5.062812         0.477073        -2.466557
 H        -6.467013         0.748058        -1.304649
