19
Iteration:   473
 C         1.463735         0.004977        -0.359042
 C         0.020063        -0.181024        -0.217191
 C        -1.146720        -0.014095         0.145965
 C        -2.658564         0.098413         0.368692
 O        -2.945901        -0.407531         1.750633
 C        -3.319252         1.380823        -0.043540
 C        -4.843462         1.439242        -0.568454
 C        -5.179077         1.324495        -2.075278
 O        -5.075295         2.668800        -1.418655
 H         1.810155         0.218241        -1.404275
 H         1.648933         0.911903         0.277545
 H         2.086213        -0.881275        -0.078525
 H        -3.161448        -0.601913        -0.268426
 H        -3.852932        -0.257173         1.955627
 H        -3.144603         2.281608         0.659807
 H        -2.841921         1.852558        -0.916352
 H        -5.624158         1.072780        -0.021097
 H        -4.412101         1.041246        -2.806930
 H        -6.192655         1.134244        -2.446797
