19
Iteration:  1678charge 0 multiplicity 1
 C         0.275743         0.080744        -1.558599
 C        -0.725513        -0.121142        -0.478802
 C        -1.673623         0.030862         0.325577
 C        -2.933617         0.172733         1.045885
 O        -2.845757         0.352707         2.500898
 C        -3.739618         1.251234         0.426666
 C        -3.873235         0.910111        -1.004492
 C        -3.436407         1.863126        -2.038329
 O        -4.852049         1.793136        -1.720590
 H         0.215705         1.047465        -2.048577
 H         1.200521         0.137350        -1.014642
 H         0.200700        -0.744780        -2.220219
 H        -3.592819        -0.769437         0.926666
 H        -2.888906        -0.525413         2.970969
 H        -4.799480         1.332965         0.830362
 H        -3.288656         2.281318         0.652825
 H        -4.241461        -0.110378        -1.202336
 H        -3.204692         2.851520        -1.634150
 H        -3.139959         1.497103        -3.072592
