19
Iteration:  3089
 C         1.178771        -0.202698        -0.634597
 C        -0.276898         0.044334        -0.255112
 C        -1.435260         0.299476        -0.055203
 C        -2.769299         0.164458         0.631530
 O        -2.623415         0.008201         2.084241
 C        -3.855532         1.295321         0.357104
 C        -4.618025         1.099509        -0.950055
 C        -4.138711         1.626593        -2.234492
 O        -5.306394         2.214645        -1.510602
 H         1.792555         0.677350        -0.410601
 H         1.473432        -1.105310        -0.029596
 H         1.413050        -0.467981        -1.665030
 H        -3.220055        -0.810210         0.213157
 H        -2.519209        -0.952774         2.254070
 H        -4.719975         1.194393         1.176641
 H        -3.515380         2.335874         0.476582
 H        -5.261574         0.189090        -0.915036
 H        -3.073552         2.118234        -2.263377
 H        -4.505430         0.936530        -3.051361
