19
Iteration:   983charge 0 multiplicity 1
 C         1.570041        -0.044863         0.336534
 C         0.142433        -0.173351        -0.037685
 C        -1.069323        -0.122772        -0.056797
 C        -2.537382         0.046290        -0.181937
 O        -3.174368        -0.366263         1.156007
 C        -3.063648         1.473893        -0.701556
 C        -4.592201         1.686587        -0.469089
 C        -5.740854         1.225713        -1.227126
 O        -5.222650         2.593368        -1.326980
 H         1.502614         0.415623         1.356171
 H         2.149613        -0.992706         0.310565
 H         2.178254         0.651573        -0.285376
 H        -2.870248        -0.811526        -0.906560
 H        -2.737599         0.232118         1.750829
 H        -2.664639         2.348504        -0.102380
 H        -2.560590         1.380810        -1.725200
 H        -4.818260         1.884583         0.623470
 H        -5.583202         0.614759        -2.080092
 H        -6.751762         1.130033        -0.907099
