19
Iteration:  4025charge 0 multiplicity 1
 C         1.211204        -0.393216        -0.438616
 C        -0.243803        -0.078175        -0.339703
 C        -1.296197         0.143675         0.182133
 C        -2.701750         0.394476         0.599307
 O        -2.700135         0.257043         2.104399
 C        -3.452815         1.631052         0.037030
 C        -4.716306         1.144218        -0.776830
 C        -4.579285         1.164200        -2.299240
 O        -5.336979         2.196697        -1.588003
 H         1.422904        -0.869549        -1.431211
 H         1.738005         0.581847        -0.428424
 H         1.604966        -1.081044         0.435525
 H        -3.250017        -0.534613         0.368220
 H        -2.671986        -0.602826         2.465038
 H        -3.793474         2.374194         0.810648
 H        -2.797903         2.108414        -0.649294
 H        -5.413154         0.391257        -0.426618
 H        -3.680571         1.445869        -2.772748
 H        -5.212219         0.458815        -2.927109
