19
Iteration:  2093charge 0 multiplicity 1
 C         1.467931        -0.105756        -0.161696
 C        -0.042570         0.066216        -0.147459
 C        -1.168778         0.133307         0.214941
 C        -2.610521         0.076287         0.240429
 O        -3.077103        -0.055901         1.673094
 C        -3.089783         1.394537        -0.431790
 C        -4.633665         1.519454        -0.574900
 C        -5.453713         0.988726        -1.726036
 O        -5.062575         2.418503        -1.528847
 H         1.838076        -0.323349         0.929850
 H         1.827413        -1.029112        -0.790818
 H         1.843171         0.961900        -0.450826
 H        -3.092509        -0.709147        -0.314413
 H        -3.866209        -0.642947         1.583928
 H        -2.725872         2.159347         0.216992
 H        -2.644194         1.567627        -1.452231
 H        -5.094663         1.696225         0.438693
 H        -4.886251         0.390077        -2.433854
 H        -6.577807         0.855499        -1.731237
