19
Iteration:  1646charge 0 multiplicity 1
 C         0.144025         0.001309        -1.623921
 C        -0.881481         0.145637        -0.587279
 C        -1.684504         0.069579         0.414548
 C        -2.977894         0.119264         1.095858
 O        -2.888444         0.262251         2.510078
 C        -3.738501         1.318958         0.516777
 C        -3.813814         0.993005        -0.929933
 C        -3.380491         1.857651        -1.961398
 O        -4.752839         1.664263        -1.872188
 H         0.170672         0.714506        -2.484083
 H         1.108533         0.115774        -1.081617
 H         0.190041        -1.026984        -1.982803
 H        -3.331060        -0.913886         0.724793
 H        -2.126679        -0.248212         2.741366
 H        -4.715701         1.365146         1.025572
 H        -3.164417         2.250229         0.810736
 H        -3.994787        -0.054733        -1.153994
 H        -3.149788         2.912010        -1.794467
 H        -2.725401         1.579186        -2.820170
