19
Iteration:  2744
 C         0.810633         0.136616        -0.900557
 C        -0.547060        -0.088005        -0.479888
 C        -1.725039        -0.117305        -0.032546
 C        -2.910105         0.022685         0.764440
 O        -2.565166         0.139067         2.210662
 C        -3.834914         1.081467         0.450532
 C        -4.240350         0.977777        -1.016392
 C        -3.779586         2.044802        -1.998822
 O        -5.125772         1.994808        -1.560712
 H         1.017995         0.305875        -1.974051
 H         1.150445         1.045333        -0.426657
 H         1.461417        -0.753503        -0.819568
 H        -3.470079        -0.888236         0.731679
 H        -2.843077         1.083328         2.399615
 H        -4.863150         0.966543         1.023815
 H        -3.479048         2.232148         0.578996
 H        -4.313855        -0.062621        -1.443601
 H        -3.299006         2.890026        -1.556437
 H        -3.577984         1.913478        -3.076827
