19
Iteration:  4798charge 0 multiplicity 1
 C         1.038011        -0.335632        -0.738161
 C        -0.374801        -0.259767        -0.176666
 C        -1.563433        -0.031229         0.036715
 C        -2.902485         0.298020         0.674995
 O        -2.818277         0.219851         2.130188
 C        -3.505659         1.650940         0.307206
 C        -4.453725         1.235259        -0.838180
 C        -4.282137         1.254988        -2.281117
 O        -5.024773         2.283695        -1.632785
 H         1.471972         0.680037        -0.630673
 H         1.522915        -1.094254        -0.208604
 H         0.929372        -0.518889        -1.812714
 H        -3.672273        -0.417495         0.352264
 H        -1.944974         0.139288         2.476009
 H        -4.149244         2.014447         1.136546
 H        -2.734063         2.421045         0.251544
 H        -5.131480         0.505492        -0.392327
 H        -3.300669         1.551311        -2.821103
 H        -4.964378         0.508364        -2.852228
