19
Iteration:   111
 C         1.576402         0.042260         0.346446
 C         0.104386        -0.300716         0.106247
 C        -1.086105        -0.065792        -0.156994
 C        -2.531648         0.011388        -0.336362
 O        -3.314943        -0.500356         0.744942
 C        -3.005324         1.518732        -0.530815
 C        -4.518780         1.750460        -0.343873
 C        -5.673511         1.236597        -1.137805
 O        -5.224909         2.658571        -1.134368
 H         2.221379        -0.757880         0.703105
 H         1.956221         0.440144        -0.580815
 H         1.646529         0.836965         1.097068
 H        -2.798316        -0.566270        -1.200649
 H        -2.693205        -0.841240         1.447287
 H        -2.489787         2.155928         0.188887
 H        -2.646356         1.835926        -1.478943
 H        -4.773226         1.824617         0.670151
 H        -5.555519         0.723280        -2.054568
 H        -6.619424         1.087158        -0.679734
