19
Iteration:  4067charge 0 multiplicity 1
 C         1.104262        -0.262902        -0.697673
 C        -0.207015        -0.071185        -0.132684
 C        -1.339112         0.098172         0.199418
 C        -2.758930         0.235208         0.564921
 O        -2.925837         0.401194         2.014411
 C        -3.505722         1.545414         0.158412
 C        -4.602587         1.181105        -0.732723
 C        -4.474073         1.066829        -2.205095
 O        -5.112589         2.189609        -1.608413
 H         1.081848        -0.663212        -1.751453
 H         1.735772         0.604276        -0.699273
 H         1.745928        -1.079779        -0.251130
 H        -3.407702        -0.611992         0.134768
 H        -2.127882        -0.154235         2.316228
 H        -3.810245         2.061726         1.065790
 H        -2.931410         2.255971        -0.249488
 H        -5.490173         0.679160        -0.187183
 H        -3.632961         1.239108        -2.800448
 H        -5.145441         0.310835        -2.651364
