19
Iteration:  3188charge 0 multiplicity 1
 C         1.249905        -0.026983        -0.420689
 C        -0.169836        -0.097267        -0.298520
 C        -1.302117        -0.038223         0.203101
 C        -2.721954         0.030589         0.498859
 O        -2.849472         0.010129         1.898666
 C        -3.369537         1.457873         0.018977
 C        -4.621517         1.134669        -0.852078
 C        -4.627409         1.531574        -2.270788
 O        -5.323182         2.338453        -1.304247
 H         1.645369         0.716092         0.303658
 H         1.569922        -1.031814        -0.114543
 H         1.683955         0.295531        -1.344350
 H        -3.243254        -0.852962         0.091733
 H        -3.603289        -0.594766         2.136871
 H        -3.572555         2.093071         0.836616
 H        -2.706710         2.023408        -0.606866
 H        -5.184844         0.255831        -0.516697
 H        -3.730866         2.151028        -2.616504
 H        -5.339364         1.052957        -2.948895
