19
Iteration:  1727
 C         0.502257         0.015311        -1.284883
 C        -0.671422        -0.001081        -0.332498
 C        -1.585290        -0.199364         0.409158
 C        -2.855509        -0.039428         1.015736
 O        -2.674396         0.504183         2.357607
 C        -3.808979         1.050682         0.344354
 C        -4.168409         0.930147        -1.133587
 C        -3.706504         1.837890        -2.178644
 O        -4.954981         2.169365        -1.685534
 H         0.638434         1.087061        -1.605127
 H         1.454729        -0.232024        -0.733468
 H         0.210979        -0.657258        -2.148002
 H        -3.355296        -1.084068         1.111149
 H        -2.206488        -0.141086         2.919246
 H        -4.689159         1.032790         0.941607
 H        -3.364886         2.007966         0.534313
 H        -4.445741        -0.046414        -1.523028
 H        -2.813803         2.333511        -1.906588
 H        -3.818721         1.393093        -3.134307
