19
Iteration:    82
 C         1.572226        -0.046953         0.228631
 C         0.098783        -0.158482         0.126092
 C        -1.108606        -0.016961         0.042376
 C        -2.453244        -0.015365        -0.249826
 O        -3.083631        -0.753646         0.805580
 C        -3.058283         1.522228        -0.513819
 C        -4.607544         1.718029        -0.361258
 C        -5.724416         1.353086        -1.263203
 O        -5.277634         2.780493        -1.162909
 H         2.090036        -0.935669         0.649711
 H         1.936424         0.171837        -0.786647
 H         1.866963         0.795566         0.876645
 H        -2.724489        -0.560490        -1.191274
 H        -3.613081        -0.251037         1.406790
 H        -2.367164         2.272074        -0.121196
 H        -2.777578         1.548586        -1.579724
 H        -5.013891         1.742020         0.703541
 H        -5.482753         0.800364        -2.154284
 H        -6.755165         1.302434        -0.941848
