19
Iteration:  4585charge 0 multiplicity 1
 C         0.614524        -0.596568        -0.948151
 C        -0.543089        -0.191937        -0.342766
 C        -1.603217         0.056774         0.244229
 C        -2.760947         0.309113         0.947613
 O        -2.619138         0.643340         2.303431
 C        -3.738420         1.341491         0.263604
 C        -4.017106         1.058270        -1.150557
 C        -3.959520         2.133077        -2.125435
 O        -5.283754         1.612223        -1.735531
 H         1.142451         0.197961        -1.369503
 H         1.308265        -1.075348        -0.193313
 H         0.551101        -1.313520        -1.764848
 H        -3.392146        -0.587627         0.900665
 H        -1.862413         0.243522         2.645757
 H        -4.559895         1.338118         0.897579
 H        -3.422083         2.360517         0.460166
 H        -3.828801        -0.020166        -1.329404
 H        -3.733788         3.137331        -1.631795
 H        -3.660018         1.898176        -3.088633
