19
Iteration:  4375
 C         0.450372        -0.254762        -1.286723
 C        -0.715799        -0.007221        -0.472888
 C        -1.692102        -0.049818         0.245867
 C        -2.800802         0.184818         1.125588
 O        -2.728581         0.696971         2.407147
 C        -3.810402         1.202459         0.433094
 C        -4.202332         0.969403        -0.956528
 C        -3.536853         1.542298        -2.105708
 O        -4.898674         1.955662        -1.840288
 H         0.429848         0.305388        -2.141973
 H         1.301472        -0.119953        -0.622293
 H         0.306600        -1.314457        -1.537811
 H        -3.334854        -0.810230         1.155145
 H        -1.998019         1.413834         2.214786
 H        -4.687899         1.237641         1.130319
 H        -3.355859         2.233450         0.537823
 H        -4.603672        -0.068128        -1.351994
 H        -2.843352         2.361322        -1.945499
 H        -3.470371         0.869882        -3.017377
