19
Iteration:  4614
 C         0.756255        -0.629447        -0.788600
 C        -0.539998        -0.189042        -0.344939
 C        -1.702076         0.184944         0.070311
 C        -2.924534         0.252863         0.952814
 O        -2.478680         0.559583         2.293458
 C        -3.826479         1.379091         0.211039
 C        -4.065398         1.048734        -1.149963
 C        -4.003792         2.119673        -2.241054
 O        -5.253677         1.675200        -1.581287
 H         1.468950         0.190192        -1.159551
 H         1.345708        -1.124038         0.061332
 H         0.863502        -1.340367        -1.670608
 H        -3.487531        -0.738497         0.995848
 H        -1.533275         0.171756         2.392680
 H        -4.674526         1.653437         0.953900
 H        -3.175248         2.237226         0.326306
 H        -3.921751        -0.064085        -1.221643
 H        -3.695813         3.104570        -2.039682
 H        -3.800375         1.744197        -3.269825
