19
Iteration:  1975
 C         1.102296         0.200353        -0.806249
 C        -0.321283         0.028654        -0.260658
 C        -1.302021        -0.212516         0.374012
 C        -2.776490        -0.042387         0.656556
 O        -3.154990         0.172988         2.116720
 C        -3.209204         1.319553        -0.089722
 C        -4.510207         1.222193        -0.785308
 C        -4.572027         1.218828        -2.201871
 O        -5.068657         2.365161        -1.450682
 H         1.742166         0.582761        -0.022333
 H         1.345059        -0.792435        -1.026764
 H         1.231033         0.845286        -1.634721
 H        -3.178305        -0.942562         0.058544
 H        -2.314432         0.142359         2.653153
 H        -3.329461         2.125284         0.661270
 H        -2.402428         1.692573        -0.838800
 H        -5.314875         0.664571        -0.313722
 H        -3.701914         1.185548        -2.857094
 H        -5.433648         0.664959        -2.689473
