19
Iteration:  3320
 C         1.420410         0.051811        -0.247553
 C        -0.016623         0.047380         0.022691
 C        -1.211097        -0.099821         0.337622
 C        -2.587852        -0.032021         0.240475
 O        -3.188629        -0.237976         1.491760
 C        -3.069462         1.380993        -0.357519
 C        -4.609575         1.426274        -0.542183
 C        -5.371478         1.213334        -1.875967
 O        -5.048291         2.567608        -1.417798
 H         1.999246         0.080157         0.748148
 H         1.591454        -0.972325        -0.694551
 H         1.682581         0.700839        -1.081159
 H        -2.881279        -0.905697        -0.360958
 H        -3.355600         0.652524         1.861528
 H        -2.748155         2.175020         0.226291
 H        -2.592619         1.467136        -1.306137
 H        -5.274630         1.426526         0.300127
 H        -4.756069         0.711463        -2.620913
 H        -6.518138         1.124566        -1.915790
