19
Iteration:  3922
 C         1.325185        -0.394620        -0.244912
 C        -0.085646        -0.230854        -0.141811
 C        -1.268741         0.125101        -0.020579
 C        -2.647098         0.276946         0.533041
 O        -2.754524         0.309658         2.058668
 C        -3.408493         1.462080        -0.107518
 C        -4.649207         1.113261        -0.867856
 C        -4.895486         1.369407        -2.357227
 O        -5.440616         2.256743        -1.428657
 H         1.671505        -1.169696        -1.039323
 H         1.818843         0.570148        -0.635322
 H         1.868656        -0.679052         0.687459
 H        -3.284193        -0.678028         0.522532
 H        -1.932895         0.691128         2.457603
 H        -3.581065         2.160870         0.668905
 H        -2.860556         2.105914        -0.734688
 H        -5.350215         0.352006        -0.402567
 H        -3.967901         1.662780        -2.910837
 H        -5.708290         0.862989        -2.936217
