19
Iteration:  3508
 C         1.435637        -0.387978         0.579521
 C         0.205780         0.014963         0.120853
 C        -1.044820         0.108923         0.011510
 C        -2.472390         0.289275        -0.314872
 O        -3.165452         0.052647         0.870983
 C        -3.046665         1.540905        -0.895321
 C        -4.463109         1.750241        -0.479367
 C        -5.649932         0.985824        -0.801718
 O        -5.392914         2.157797        -1.499036
 H         1.269734        -1.285931         1.345358
 H         2.164024        -0.722201        -0.169960
 H         1.967437         0.481255         1.094163
 H        -2.638888        -0.453228        -1.099411
 H        -3.644155        -0.847220         0.786219
 H        -2.477571         2.292076        -0.450846
 H        -2.988282         1.655388        -1.965390
 H        -4.506937         2.403823         0.411092
 H        -5.411864        -0.021042        -1.268622
 H        -6.371977         1.105125        -0.045195
