19
Iteration:  2479
 C         1.318080         0.172682        -0.216725
 C        -0.045155         0.047401         0.139319
 C        -1.233919        -0.038421         0.076682
 C        -2.674724        -0.055458         0.155094
 O        -3.124190        -0.441779         1.486031
 C        -3.140801         1.386428        -0.370775
 C        -4.596177         1.561223        -0.483249
 C        -5.306224         1.202563        -1.765231
 O        -4.995849         2.581023        -1.434935
 H         1.483532        -0.786850        -0.765523
 H         1.642305         1.076930        -0.732425
 H         1.993073         0.174563         0.663485
 H        -3.118237        -0.860487        -0.578644
 H        -2.434263        -0.228146         2.173582
 H        -2.699019         2.098332         0.386052
 H        -2.520702         1.570237        -1.320239
 H        -5.165215         1.399728         0.468622
 H        -4.756417         0.705232        -2.525012
 H        -6.354182         0.895389        -1.744481
