19
Iteration:  1533charge 0 multiplicity 1
 C         0.368003        -0.031845        -1.498608
 C        -0.824206        -0.011897        -0.615293
 C        -1.592247        -0.006593         0.265861
 C        -2.895712         0.059847         1.102924
 O        -2.803676         0.626178         2.404459
 C        -3.999713         0.787747         0.394996
 C        -4.134204         0.808154        -1.125927
 C        -3.330550         1.828854        -1.811240
 O        -4.702382         2.129808        -1.611647
 H        -0.003047         0.069640        -2.462499
 H         1.022928         0.750752        -1.287081
 H         0.857376        -0.977865        -1.430353
 H        -3.275417        -0.964198         1.320931
 H        -2.284518         1.448611         2.351442
 H        -4.998409         0.323648         0.630737
 H        -4.153918         1.756227         0.828430
 H        -4.477481        -0.104199        -1.645488
 H        -2.559394         2.486122        -1.473500
 H        -3.107913         1.501546        -2.780928
