19
Iteration:  2178
 C         1.459879        -0.263217         0.469080
 C         0.111517        -0.143328         0.025277
 C        -1.093000         0.110812        -0.168098
 C        -2.530613         0.267459        -0.153103
 O        -3.053385        -0.100687         1.081365
 C        -3.008528         1.654025        -0.760370
 C        -4.524386         1.757524        -0.453999
 C        -5.638229         0.843171        -1.151486
 O        -5.388908         2.270209        -1.410762
 H         1.508592        -0.760531         1.420070
 H         2.023322        -0.764494        -0.299804
 H         2.052002         0.604200         0.753711
 H        -2.892213        -0.553862        -0.860294
 H        -3.115841         0.580810         1.792312
 H        -2.559406         2.536032        -0.208544
 H        -2.815664         1.801274        -1.825971
 H        -4.583289         2.215913         0.575892
 H        -5.357943         0.119625        -1.916865
 H        -6.501931         0.380804        -0.608769
