19
Iteration:  3175charge 0 multiplicity 1
 C         1.280973        -0.093549        -0.353832
 C        -0.234699        -0.017812        -0.404104
 C        -1.354976         0.049571         0.114024
 C        -2.805715         0.116076         0.473979
 O        -2.807125         0.021687         1.911041
 C        -3.430977         1.351724         0.055907
 C        -4.563852         1.142382        -0.850248
 C        -4.538399         1.553845        -2.234737
 O        -5.316978         2.280363        -1.258280
 H         1.665613         0.678475         0.332541
 H         1.841859        -1.089411        -0.066393
 H         1.628131         0.035671        -1.417617
 H        -3.313989        -0.725977        -0.011871
 H        -3.702506        -0.114959         2.185572
 H        -3.773466         1.717998         0.953494
 H        -2.641510         1.956606        -0.322441
 H        -5.311598         0.307041        -0.683190
 H        -3.528121         1.785805        -2.749315
 H        -5.101719         0.984935        -2.997910
