19
Iteration:  3705charge 0 multiplicity 1
 C         1.449384        -0.031956        -0.070267
 C         0.025384        -0.223631        -0.010256
 C        -1.182851        -0.101739         0.081888
 C        -2.639350         0.101837         0.173968
 O        -3.199255         0.078513         1.545897
 C        -3.093738         1.496546        -0.390675
 C        -4.597721         1.640465        -0.521096
 C        -5.516290         0.989797        -1.506003
 O        -4.968744         2.359020        -1.753761
 H         2.059826        -0.976437        -0.081994
 H         1.708749         0.592388        -0.860692
 H         1.723599         0.469874         0.876523
 H        -3.175925        -0.739187        -0.336891
 H        -2.789937        -0.679414         2.038559
 H        -2.429087         2.334682         0.176650
 H        -2.735133         1.795406        -1.402222
 H        -5.106466         2.069454         0.402964
 H        -5.297639         0.124765        -2.084531
 H        -6.600302         1.145695        -1.243060
