19
Iteration:  1964charge 0 multiplicity 1
 C         1.034935         0.116472        -0.779143
 C        -0.313838         0.072025        -0.235808
 C        -1.367583        -0.114407         0.328470
 C        -2.757236         0.030397         0.573523
 O        -3.098457         0.171993         2.131786
 C        -3.206035         1.322157        -0.023514
 C        -4.569327         1.186391        -0.745316
 C        -4.552555         1.228765        -2.312418
 O        -5.019262         2.299871        -1.440534
 H         1.694907         0.623790        -0.093387
 H         1.547329        -0.732031        -1.138775
 H         0.908824         0.735374        -1.631183
 H        -3.449397        -0.872542         0.335315
 H        -2.336070        -0.217212         2.543175
 H        -3.246746         1.951399         0.889862
 H        -2.324286         1.683321        -0.685820
 H        -5.276178         0.650473        -0.105285
 H        -3.555580         1.518073        -2.675910
 H        -5.300567         0.603395        -2.883353
