19
Iteration:   865charge 0 multiplicity 1
 C         1.470245         0.045632         0.426734
 C         0.077901        -0.151366         0.050916
 C        -1.128054        -0.191729        -0.188272
 C        -2.619142        -0.017386        -0.256736
 O        -3.092163        -0.160182         1.100113
 C        -3.094195         1.383009        -0.812930
 C        -4.495414         1.587946        -0.468618
 C        -5.636752         1.214184        -1.240674
 O        -5.207981         2.610336        -1.114700
 H         1.669333         1.026617         0.804363
 H         1.865681        -0.683326         1.124564
 H         2.109032        -0.108784        -0.429622
 H        -2.995985        -0.705446        -0.980555
 H        -2.370352        -0.632560         1.610493
 H        -2.505370         2.183975        -0.409761
 H        -3.090786         1.489861        -1.889127
 H        -4.713246         1.609004         0.670583
 H        -5.385646         0.759860        -2.252020
 H        -6.673748         1.009975        -0.886641
