19
Iteration:  2167charge 0 multiplicity 1
 C         1.489629        -0.235934         0.389104
 C         0.064770        -0.116144         0.068327
 C        -1.097059         0.020148        -0.061436
 C        -2.502537         0.266024        -0.187841
 O        -3.028036        -0.083511         1.125009
 C        -3.002768         1.632101        -0.673111
 C        -4.556858         1.693741        -0.458375
 C        -5.594014         0.932608        -1.178138
 O        -5.439624         2.250892        -1.481105
 H         1.560504        -0.861503         1.259615
 H         2.038569        -0.818982        -0.340068
 H         1.894007         0.767562         0.393735
 H        -3.035627        -0.442968        -0.875318
 H        -2.677405         0.638720         1.629769
 H        -2.517780         2.407345        -0.015651
 H        -2.606531         1.812868        -1.668491
 H        -4.950739         1.962563         0.551505
 H        -5.230039         0.371225        -2.031409
 H        -6.606900         0.760879        -0.745257
