19
Iteration:  1222charge 0 multiplicity 1
 C         1.279971        -0.160931        -0.404115
 C        -0.191492        -0.203558        -0.333539
 C        -1.333429         0.036344        -0.043719
 C        -2.747405         0.140092         0.425245
 O        -2.842605        -0.008285         1.897897
 C        -3.507528         1.460393         0.213875
 C        -4.717350         1.297562        -0.678774
 C        -4.788417         1.276115        -2.138987
 O        -5.008027         2.486589        -1.488128
 H         1.817945        -1.126903        -0.309995
 H         1.622861         0.287350        -1.367754
 H         1.569183         0.585165         0.352491
 H        -3.376821        -0.667968         0.016819
 H        -2.132107        -0.479357         2.299585
 H        -3.672984         1.659510         1.276793
 H        -2.920067         2.155667        -0.454553
 H        -5.664436         1.000528        -0.225092
 H        -3.833510         1.585651        -2.768957
 H        -5.722257         0.791933        -2.587286
