19
Iteration:  4509charge 0 multiplicity 1
 C         0.413811        -0.473001        -1.304297
 C        -0.709823        -0.233695        -0.343634
 C        -1.526834         0.154074         0.540552
 C        -2.919108         0.190158         1.072358
 O        -2.679033         0.796327         2.405462
 C        -3.751110         1.276546         0.234882
 C        -3.806164         0.903857        -1.272446
 C        -3.873118         2.158082        -2.084206
 O        -5.054670         1.553205        -1.741605
 H         0.661808         0.374372        -1.856479
 H         1.347888        -0.790026        -0.812260
 H         0.197970        -1.281507        -1.954527
 H        -3.418237        -0.822952         1.192712
 H        -2.235355         0.047728         2.997020
 H        -4.736711         1.345351         0.597751
 H        -3.243274         2.270088         0.501521
 H        -3.473209        -0.115703        -1.465740
 H        -3.660104         3.157487        -1.512311
 H        -3.622665         2.101618        -3.144048
