19
Iteration:   237charge 0 multiplicity 1
 C         1.570721        -0.189321         0.450793
 C         0.154927        -0.271585         0.116429
 C        -0.957524         0.160743        -0.262600
 C        -2.463197         0.192655        -0.419624
 O        -3.087232        -0.435334         0.868805
 C        -3.091724         1.544396        -0.496851
 C        -4.581906         1.637702        -0.383911
 C        -5.868509         1.237702        -1.023068
 O        -5.226683         2.525279        -1.280361
 H         2.132632        -1.109094         0.207661
 H         2.078966         0.628230        -0.138392
 H         1.643750         0.098472         1.515499
 H        -2.861033        -0.373545        -1.300069
 H        -4.035851        -0.718962         0.650798
 H        -2.873942         2.062750         0.449256
 H        -2.816842         1.983118        -1.558814
 H        -4.805353         2.157727         0.685561
 H        -5.660044         0.460608        -1.871758
 H        -6.917387         1.210659        -0.585688
