19
Iteration:  1083
 C         1.523996        -0.134169        -0.279847
 C         0.089763        -0.175939         0.077756
 C        -1.094438         0.042495         0.302960
 C        -2.637354         0.171112         0.132359
 O        -3.347382        -0.264675         1.311268
 C        -3.090629         1.510900        -0.292584
 C        -4.503733         1.584089        -0.545417
 C        -5.335844         1.103239        -1.614195
 O        -5.273573         2.531786        -1.445715
 H         2.106261        -0.665610         0.517114
 H         1.860309        -0.665240        -1.219086
 H         1.899750         0.915111        -0.324809
 H        -3.032272        -0.639366        -0.644904
 H        -2.755277         0.047583         2.032279
 H        -2.744227         2.314506         0.472466
 H        -2.561102         1.727448        -1.301137
 H        -5.186074         1.730275         0.314963
 H        -4.797371         0.610896        -2.419362
 H        -6.283169         0.721243        -1.387277
