19
Iteration:  3214charge 0 multiplicity 1
 C         1.356757         0.035199        -0.508928
 C        -0.038063        -0.145019         0.014221
 C        -1.295874        -0.112700         0.152392
 C        -2.756331         0.051869         0.512247
 O        -2.984420        -0.058198         1.964052
 C        -3.234540         1.422838        -0.087548
 C        -4.628192         1.238546        -0.895830
 C        -4.789667         1.495480        -2.280332
 O        -5.353099         2.427165        -1.323238
 H         1.933886         0.789793         0.037784
 H         1.778954        -0.920733        -0.515576
 H         1.200609         0.452897        -1.508881
 H        -3.379759        -0.818612         0.205124
 H        -2.987806        -1.052320         2.060273
 H        -3.377884         2.260914         0.733675
 H        -2.436372         1.868092        -0.776294
 H        -5.077454         0.387070        -0.414262
 H        -4.014470         1.901946        -2.836160
 H        -5.608231         0.987480        -2.827147
