19
Iteration:  2912charge 0 multiplicity 1
 C        -0.043075         0.453711        -1.584349
 C        -0.948065         0.227102        -0.494643
 C        -1.735534         0.065772         0.363088
 C        -2.951809        -0.136568         1.126934
 O        -2.691752         0.082080         2.584952
 C        -4.018733         0.897810         0.496404
 C        -3.882822         0.895259        -1.122476
 C        -3.093379         1.809936        -1.998160
 O        -4.548533         1.988374        -1.819425
 H        -0.195643         1.209183        -2.298095
 H         0.977558         0.761077        -1.356780
 H         0.004149        -0.457343        -2.152174
 H        -3.428543        -1.082121         1.126174
 H        -3.257948         0.861787         2.829898
 H        -5.050582         0.586440         0.989063
 H        -3.644726         1.922715         0.774269
 H        -4.175459        -0.028975        -1.587099
 H        -2.371725         2.642722        -1.655465
 H        -2.900347         1.476791        -3.067792
