19
Iteration:  1582
 C         0.055143        -0.021986        -1.649678
 C        -0.740276        -0.037938        -0.349487
 C        -1.642632         0.120793         0.402702
 C        -2.844307         0.098795         1.062903
 O        -2.773953         0.366467         2.525364
 C        -3.947376         0.972578         0.410353
 C        -3.957892         0.873629        -1.102403
 C        -3.264594         1.921805        -1.976938
 O        -4.749480         1.919886        -1.755746
 H        -0.526171         0.491699        -2.522608
 H         0.969018         0.647887        -1.405374
 H         0.360205        -1.088043        -1.884557
 H        -3.315188        -0.907937         1.028993
 H        -2.804954         1.330267         2.666695
 H        -4.919095         0.954089         0.821694
 H        -3.702409         2.055606         0.589424
 H        -4.088507        -0.164572        -1.448712
 H        -2.767796         2.770925        -1.458920
 H        -2.703860         1.775510        -2.976531
