19
Iteration:  3523
 C         1.450812        -0.423022         0.585102
 C         0.150629         0.090039         0.178616
 C        -1.075657         0.166049        -0.084522
 C        -2.446259         0.255409        -0.307665
 O        -3.277840        -0.009469         0.902578
 C        -2.974175         1.635783        -0.956062
 C        -4.473579         1.832700        -0.416930
 C        -5.605179         0.918078        -0.737758
 O        -5.329061         2.129175        -1.529872
 H         1.368274        -1.340622         1.162035
 H         2.102015        -0.772674        -0.328603
 H         2.157972         0.238306         1.163201
 H        -2.761567        -0.542374        -1.016395
 H        -3.107360        -0.945280         1.025562
 H        -2.415307         2.635468        -0.826141
 H        -3.166259         1.226541        -1.969181
 H        -4.599004         2.462424         0.512618
 H        -5.580270         0.065095        -1.397213
 H        -6.606422         0.961395        -0.179245
