19
Iteration:  4645charge 0 multiplicity 1
 C         0.907311        -0.585617        -0.683193
 C        -0.449731        -0.221912        -0.354542
 C        -1.634014        -0.078930         0.095896
 C        -2.842987         0.253466         0.814246
 O        -2.499818         0.562613         2.183679
 C        -3.758991         1.464364         0.349060
 C        -4.232145         1.134437        -1.000311
 C        -4.104902         2.021327        -2.281303
 O        -5.356020         1.818239        -1.685965
 H         1.522376         0.358656        -0.815032
 H         1.320068        -1.088831         0.153961
 H         0.842165        -1.279935        -1.522312
 H        -3.433890        -0.706646         0.866698
 H        -1.667923         0.163531         2.348133
 H        -4.553546         1.218383         1.166783
 H        -3.168427         2.390302         0.501378
 H        -4.300321         0.044293        -1.081618
 H        -3.652889         3.000486        -2.260656
 H        -3.828673         1.556671        -3.328051
