19
Iteration:  1927
 C         1.068840        -0.008478        -0.808135
 C        -0.176148        -0.046058        -0.137983
 C        -1.376928         0.022429         0.193495
 C        -2.818246         0.188156         0.635691
 O        -2.825303         0.082636         2.168954
 C        -3.516790         1.467555         0.172915
 C        -4.599125         1.192141        -0.823922
 C        -4.420843         1.185960        -2.294803
 O        -5.087732         2.294197        -1.547734
 H         1.711344         0.759925        -0.309614
 H         1.507211        -1.044592        -0.983669
 H         0.849705         0.535642        -1.777396
 H        -3.488847        -0.700330         0.299365
 H        -2.959121        -0.847705         2.300456
 H        -3.983138         1.764489         1.107364
 H        -3.027089         2.299521        -0.214568
 H        -5.459815         0.540580        -0.526265
 H        -3.489181         1.548871        -2.735310
 H        -4.965678         0.690663        -3.060625
