19
Iteration:  2114
 C         1.493404        -0.123140        -0.004101
 C         0.044168        -0.035331        -0.010971
 C        -1.179563         0.113299         0.071945
 C        -2.600761         0.150576         0.154490
 O        -3.049493        -0.021596         1.458067
 C        -3.153491         1.456907        -0.486715
 C        -4.663355         1.533441        -0.461761
 C        -5.439279         1.000315        -1.513866
 O        -5.133682         2.395403        -1.599262
 H         1.853530        -0.492948         1.029383
 H         1.739656        -0.978169        -0.728052
 H         2.021096         0.889638        -0.175046
 H        -3.048867        -0.631634        -0.438858
 H        -3.268720        -0.941690         1.563523
 H        -2.679323         2.319016        -0.038364
 H        -2.955724         1.438266        -1.568762
 H        -5.263175         1.761372         0.454784
 H        -5.044168         0.509849        -2.392085
 H        -6.426680         0.596996        -1.177751
