19
Iteration:  3406
 C         1.439118        -0.046640         0.357905
 C         0.035276         0.021906        -0.097840
 C        -1.195108        -0.120051        -0.262565
 C        -2.601019         0.078786        -0.012155
 O        -3.107214        -0.058652         1.376484
 C        -3.012170         1.439292        -0.600131
 C        -4.522010         1.676553        -0.451388
 C        -5.554149         1.040650        -1.327206
 O        -5.133453         2.364275        -1.501514
 H         1.478579        -0.424938         1.432123
 H         2.190201        -0.760502        -0.149101
 H         1.944867         0.933150         0.386342
 H        -3.006543        -0.677807        -0.715141
 H        -3.878564        -0.556412         1.171638
 H        -2.484498         2.210012         0.060756
 H        -2.719021         1.563450        -1.657884
 H        -4.678017         2.024489         0.550887
 H        -5.402100         0.360467        -2.146449
 H        -6.663021         0.947465        -0.964087
