19
Iteration:  4612charge 0 multiplicity 1
 C         0.767754        -0.635747        -0.800496
 C        -0.570566        -0.184490        -0.335946
 C        -1.690060         0.197274         0.079360
 C        -2.936017         0.243909         0.945833
 O        -2.472154         0.565632         2.304919
 C        -3.827805         1.372047         0.212834
 C        -4.065128         1.038168        -1.160521
 C        -4.003379         2.122082        -2.226732
 O        -5.236114         1.667511        -1.586131
 H         1.496499         0.157674        -1.221432
 H         1.323286        -1.113440        -0.030030
 H         0.879347        -1.316056        -1.657247
 H        -3.547022        -0.718842         0.961824
 H        -1.615319         0.208917         2.408149
 H        -4.662575         1.714741         0.963033
 H        -3.170884         2.285503         0.321085
 H        -3.924078        -0.042804        -1.269156
 H        -3.719589         3.123632        -1.941985
 H        -3.823834         1.722848        -3.326827
