19
Iteration:   549
 C         1.308446         0.011584        -0.579906
 C        -0.113512         0.065985        -0.168546
 C        -1.286409        -0.154914         0.168634
 C        -2.746142         0.072414         0.341126
 O        -3.349932        -0.059961         1.689110
 C        -3.151965         1.388923        -0.106686
 C        -4.530357         1.240656        -0.597072
 C        -4.707070         1.407811        -2.067723
 O        -5.172783         2.426173        -1.112923
 H         1.416434         0.380240        -1.633328
 H         1.887083         0.686177         0.074552
 H         1.718548        -1.021002        -0.627623
 H        -3.244361        -0.769726        -0.199501
 H        -2.914953        -0.912838         1.995213
 H        -2.855180         2.117274         0.724713
 H        -2.559408         1.651987        -0.997482
 H        -5.130852         0.761554         0.068514
 H        -3.815066         1.715254        -2.627224
 H        -5.424588         0.740269        -2.589689
