19
Iteration:  3150charge 0 multiplicity 1
 C         1.212228        -0.151331        -0.397332
 C        -0.228893         0.074223        -0.234797
 C        -1.406991         0.101616        -0.149474
 C        -2.729416         0.134693         0.556919
 O        -2.690062        -0.093767         1.989659
 C        -3.581829         1.430116         0.199576
 C        -4.605207         1.074145        -0.893243
 C        -4.459486         1.585296        -2.270540
 O        -5.303098         2.248764        -1.357952
 H         1.849671         0.516875         0.216060
 H         1.549851        -1.200479        -0.006016
 H         1.519536        -0.271221        -1.529937
 H        -3.304660        -0.705459         0.138987
 H        -3.310103         0.536088         2.315282
 H        -4.071209         1.777461         1.124878
 H        -2.827315         2.167946        -0.168759
 H        -5.359441         0.252134        -0.892542
 H        -3.540939         1.908381        -2.641963
 H        -5.010546         1.142707        -3.119511
