19
Iteration:  1911
 C         1.108321        -0.054627        -0.799160
 C        -0.232361        -0.064169        -0.224516
 C        -1.403904         0.108478         0.179416
 C        -2.698217         0.172121         0.714339
 O        -2.775406         0.065702         2.112267
 C        -3.642614         1.465849         0.360562
 C        -4.674628         1.195310        -0.813642
 C        -4.362824         1.293268        -2.302350
 O        -5.162161         2.276526        -1.708130
 H         1.869681         0.528869        -0.264414
 H         1.563478        -1.037170        -0.763330
 H         1.184203         0.209842        -1.851073
 H        -3.194853        -0.684625         0.364158
 H        -2.891134        -0.810608         2.428871
 H        -4.207707         1.792197         1.269397
 H        -2.824830         2.287227         0.243165
 H        -5.425241         0.521395        -0.436293
 H        -3.303187         1.447187        -2.592131
 H        -4.887379         0.477356        -2.966592
