19
Iteration:  2833
 C         0.240631         0.229871        -1.658685
 C        -0.749240         0.257206        -0.591793
 C        -1.615515         0.197519         0.332402
 C        -2.854523        -0.022687         1.087586
 O        -2.962735         0.207724         2.504171
 C        -4.024521         0.864866         0.409055
 C        -3.967787         0.844674        -1.117230
 C        -3.229954         1.872362        -1.841309
 O        -4.671162         1.979948        -1.651606
 H        -0.308085         0.576832        -2.496271
 H         1.064977         0.850399        -1.350748
 H         0.602412        -0.725245        -2.045850
 H        -3.097760        -1.047886         1.025613
 H        -3.004315        -0.730737         2.898783
 H        -5.066725         0.500252         0.795408
 H        -3.814688         1.869925         0.972511
 H        -4.126833        -0.140911        -1.550200
 H        -2.703482         2.558128        -1.153754
 H        -2.971283         1.953978        -2.887800
