19
Iteration:   871charge 0 multiplicity 1
 C         1.468714         0.044609         0.447023
 C         0.068332        -0.117560        -0.021707
 C        -1.147999        -0.206508        -0.229574
 C        -2.605804        -0.036823        -0.234106
 O        -3.099310        -0.141304         1.083311
 C        -3.079718         1.357905        -0.809464
 C        -4.547429         1.577792        -0.392026
 C        -5.572687         1.213808        -1.267351
 O        -5.226580         2.626039        -1.129647
 H         1.581943         1.035348         0.996867
 H         1.706524        -0.723710         1.233531
 H         2.263008        -0.072599        -0.345665
 H        -3.000696        -0.875450        -0.944739
 H        -2.422602        -0.514669         1.668245
 H        -2.506682         2.204778        -0.333599
 H        -2.809781         1.288947        -1.922013
 H        -4.590758         1.668792         0.629779
 H        -5.548503         0.781462        -2.228929
 H        -6.459963         1.049048        -0.677217
