19
Iteration:  1581
 C         0.067349        -0.019852        -1.656163
 C        -0.745537        -0.042633        -0.345765
 C        -1.633771         0.117693         0.393954
 C        -2.845519         0.095755         1.066708
 O        -2.780904         0.375595         2.523350
 C        -3.947101         0.964211         0.397033
 C        -3.958287         0.875803        -1.089126
 C        -3.272934         1.919987        -1.971616
 O        -4.746916         1.925803        -1.754337
 H        -0.522920         0.475518        -2.513500
 H         0.973770         0.641782        -1.427972
 H         0.368932        -1.067865        -1.885466
 H        -3.321980        -0.929624         1.029163
 H        -2.816793         1.359155         2.682358
 H        -4.905402         0.950906         0.818561
 H        -3.701627         2.041259         0.573235
 H        -4.103310        -0.153786        -1.440151
 H        -2.773748         2.733393        -1.452353
 H        -2.699119         1.775010        -2.935240
