19
Iteration:   510charge 0 multiplicity 1
 C         1.323234         0.002425        -0.527827
 C        -0.124015        -0.025015        -0.027885
 C        -1.326730        -0.105577         0.190182
 C        -2.762963         0.014442         0.266434
 O        -2.988923        -0.205745         1.724348
 C        -3.094524         1.410029        -0.050613
 C        -4.621903         1.393500        -0.674550
 C        -4.929904         1.348816        -2.060549
 O        -5.184652         2.533281        -1.269368
 H         1.271406         0.431383        -1.518474
 H         1.812730         0.807033         0.062812
 H         1.988490        -0.830496        -0.319220
 H        -3.222970        -0.618502        -0.518718
 H        -3.766637        -0.745458         1.945297
 H        -3.124651         1.949597         0.876512
 H        -2.344111         1.731521        -0.803535
 H        -5.395168         0.783858         0.016337
 H        -4.227214         1.680006        -2.806577
 H        -5.764655         0.700726        -2.316198
