19
Iteration:   906charge 0 multiplicity 1
 C         1.260136         0.009963         0.585211
 C         0.008428         0.057063        -0.252907
 C        -1.163147        -0.169795        -0.386683
 C        -2.600520        -0.083799        -0.222206
 O        -3.031599        -0.184288         1.190239
 C        -3.078152         1.334783        -0.823331
 C        -4.426952         1.641739        -0.351561
 C        -5.585120         1.132251        -1.235160
 O        -5.119527         2.621492        -1.172635
 H         1.203795         0.824722         1.351312
 H         1.220750        -0.976591         1.060974
 H         2.224458         0.166673         0.062102
 H        -3.209430        -0.930779        -0.647092
 H        -2.211711        -0.293674         1.699181
 H        -2.465423         2.108287        -0.309864
 H        -2.708868         1.303738        -1.916522
 H        -4.606183         1.761767         0.737382
 H        -5.464614         0.597442        -2.116777
 H        -6.533729         0.974527        -0.721225
