19
Iteration:   477charge 0 multiplicity 1
 C         1.441703         0.008520        -0.367630
 C         0.005141        -0.180811        -0.198004
 C        -1.169837        -0.033373         0.128880
 C        -2.602809         0.102073         0.398078
 O        -2.952890        -0.409469         1.778949
 C        -3.300678         1.389008        -0.062653
 C        -4.818739         1.441355        -0.600245
 C        -5.171383         1.339292        -2.077325
 O        -5.085368         2.647253        -1.410049
 H         1.736499         0.200621        -1.397884
 H         1.516548         0.914681         0.236868
 H         2.099195        -0.839291        -0.202224
 H        -3.063482        -0.559178        -0.425296
 H        -3.948866        -0.258740         1.883914
 H        -3.241070         2.234570         0.632097
 H        -2.716338         1.939911        -0.835478
 H        -5.808654         1.115084         0.074392
 H        -4.391259         1.271002        -2.835622
 H        -6.152430         0.968691        -2.408157
