19
Iteration:  2866charge 0 multiplicity 1
 C        -0.053318         0.321586        -1.739291
 C        -0.823308         0.262811        -0.486200
 C        -1.542084         0.237269         0.491301
 C        -2.917038        -0.058983         1.006437
 O        -2.983328         0.145063         2.394603
 C        -4.011548         0.882648         0.473709
 C        -3.983753         0.830285        -1.045522
 C        -3.103375         1.788852        -1.738073
 O        -4.506095         1.949498        -1.779829
 H        -0.560665         0.933925        -2.428185
 H         0.818611         0.924261        -1.726404
 H         0.170346        -0.632853        -2.194227
 H        -3.069274        -1.111549         0.774481
 H        -2.166341         0.392329         2.814120
 H        -5.050318         0.519419         0.821684
 H        -3.708454         1.841495         1.034077
 H        -4.133269        -0.146985        -1.477179
 H        -2.610187         2.486933        -1.027804
 H        -2.626922         1.689596        -2.687655
