19
Iteration:  2373charge 0 multiplicity 1
 C         1.461991         0.142134         0.410096
 C         0.019122        -0.022595         0.241248
 C        -1.146531        -0.187296        -0.176192
 C        -2.587308         0.010574        -0.265458
 O        -3.224839        -0.302930         0.989060
 C        -3.030358         1.495867        -0.819085
 C        -4.392220         1.780153        -0.373106
 C        -5.545271         1.080677        -0.939699
 O        -5.242655         2.379585        -1.481465
 H         2.000587        -0.845666         0.432923
 H         1.842254         0.535975        -0.541021
 H         1.897141         0.574627         1.336200
 H        -3.132141        -0.619901        -0.884808
 H        -2.657404        -0.024030         1.770929
 H        -2.216508         2.203625        -0.676602
 H        -3.113028         1.216182        -1.827893
 H        -4.549083         2.322674         0.582170
 H        -5.431434         0.243179        -1.677055
 H        -6.515918         1.156519        -0.328973
