19
Iteration:  2636
 C         1.347391        -0.237903        -0.583428
 C        -0.104295        -0.066756        -0.267468
 C        -1.274707         0.246162         0.077883
 C        -2.751997         0.213688         0.525558
 O        -2.834788        -0.085483         2.040840
 C        -3.688318         1.362909         0.236434
 C        -4.660269         1.072628        -0.962441
 C        -4.382264         1.817903        -2.279808
 O        -5.422903         2.179295        -1.292152
 H         1.282115        -0.336290        -1.668586
 H         1.935974         0.681801        -0.539998
 H         1.914614        -0.981064         0.024610
 H        -3.158030        -0.729143        -0.040473
 H        -2.682014        -1.030379         2.029231
 H        -4.432843         1.478248         1.026642
 H        -3.236028         2.286195         0.053869
 H        -5.083298         0.074782        -0.961612
 H        -3.432698         2.349889        -2.373978
 H        -4.811647         1.396565        -3.202962
