19
Iteration:  1429charge 0 multiplicity 1
 C         0.748880        -0.041527        -0.982707
 C        -0.733927        -0.165156        -0.575717
 C        -1.764034        -0.026694        -0.027450
 C        -2.875376         0.107820         0.856303
 O        -2.521406         0.326545         2.280129
 C        -3.961360         1.164986         0.462896
 C        -4.396008         0.961466        -1.032698
 C        -3.605599         1.758279        -2.011760
 O        -4.938259         2.096089        -1.559944
 H         1.021525        -0.431881        -1.991377
 H         1.022863         1.038446        -0.924954
 H         1.423552        -0.495845        -0.251048
 H        -3.341381        -0.839341         0.793799
 H        -2.015439         1.189742         2.405853
 H        -4.849048         0.961899         1.049786
 H        -3.655246         2.256852         0.562579
 H        -4.717626         0.019389        -1.474464
 H        -2.934117         2.537162        -1.565940
 H        -3.540775         1.473649        -3.115555
