19
Iteration:  2645charge 0 multiplicity 1
 C         1.264327        -0.198425        -0.614519
 C        -0.174501        -0.054038        -0.189610
 C        -1.314514         0.258737         0.026733
 C        -2.695131         0.170670         0.516751
 O        -2.798431        -0.023505         1.989620
 C        -3.695659         1.297382         0.194355
 C        -4.589306         1.064998        -0.987452
 C        -4.295267         1.779238        -2.194353
 O        -5.467141         2.204518        -1.298024
 H         1.357924        -0.554464        -1.657288
 H         1.862704         0.654476        -0.366728
 H         1.827468        -1.054814        -0.170002
 H        -3.081744        -0.810812         0.193071
 H        -2.890239        -0.964941         2.152339
 H        -4.359336         1.221279         1.143532
 H        -3.204678         2.355224         0.289954
 H        -5.122200         0.077053        -0.994314
 H        -3.472646         2.497513        -2.260598
 H        -4.667726         1.459189        -3.138640
