19
Iteration:   570charge 0 multiplicity 1
 C         1.286162         0.008065        -0.596840
 C        -0.130508        -0.135219        -0.218878
 C        -1.214314         0.029958         0.333986
 C        -2.625074        -0.013197         0.376848
 O        -3.313835        -0.136239         1.678964
 C        -3.127899         1.441724        -0.059938
 C        -4.569184         1.229322        -0.678310
 C        -4.846826         1.421120        -2.117497
 O        -5.191320         2.514313        -1.173861
 H         1.488320         0.511492        -1.556816
 H         1.722750         0.662841         0.155560
 H         1.869730        -0.899608        -0.735093
 H        -3.000027        -0.891242        -0.185368
 H        -2.818278        -0.561439         2.355342
 H        -3.187184         1.961704         0.909843
 H        -2.329148         1.919027        -0.605432
 H        -5.197831         0.541484        -0.186333
 H        -4.039013         1.638849        -2.838904
 H        -5.702824         0.881782        -2.586679
