19
Iteration:   493charge 0 multiplicity 1
 C         1.331518         0.062731        -0.434988
 C        -0.032575        -0.181763        -0.116058
 C        -1.216798        -0.041299         0.150008
 C        -2.663527        -0.006419         0.391320
 O        -2.956848        -0.332753         1.743057
 C        -3.280913         1.483646        -0.084500
 C        -4.605510         1.417535        -0.660469
 C        -5.068976         1.372365        -2.091182
 O        -5.179792         2.594457        -1.343284
 H         1.431843         0.285671        -1.524542
 H         1.890029         0.827871         0.106518
 H         1.889734        -0.880187        -0.199193
 H        -3.144324        -0.880992        -0.103079
 H        -3.939178        -0.445419         1.756548
 H        -3.283037         2.029315         0.888103
 H        -2.565879         1.955950        -0.759869
 H        -5.261549         1.084477         0.094035
 H        -4.312959         1.211468        -2.904424
 H        -6.064046         0.934137        -2.323537
