19
Iteration:  1140charge 0 multiplicity 1
 C         1.259893        -0.142598        -0.180764
 C        -0.131347        -0.006000        -0.102351
 C        -1.351221         0.079415        -0.162455
 C        -2.723197         0.058296         0.216022
 O        -2.957174        -0.221061         1.619449
 C        -3.230231         1.522792        -0.087850
 C        -4.631038         1.523993        -0.488051
 C        -5.029256         1.117885        -1.817122
 O        -5.036001         2.474712        -1.506574
 H         1.520475        -1.022456         0.385420
 H         1.589377        -0.373790        -1.190050
 H         1.809819         0.694872         0.235771
 H        -3.387062        -0.734518        -0.301182
 H        -2.312049         0.344099         2.096411
 H        -2.867747         2.089122         0.821815
 H        -2.627162         1.910553        -0.938931
 H        -5.464369         1.322468         0.237953
 H        -4.280881         0.690656        -2.430374
 H        -6.046788         0.769186        -1.993054
