19
Iteration:  3522charge 0 multiplicity 1
 C         1.454085        -0.420921         0.587129
 C         0.147660         0.088673         0.168157
 C        -1.076203         0.157328        -0.077429
 C        -2.438564         0.259749        -0.303812
 O        -3.269478        -0.006071         0.895115
 C        -2.981230         1.635614        -0.949942
 C        -4.464139         1.828822        -0.419264
 C        -5.612996         0.926109        -0.738139
 O        -5.330810         2.126925        -1.529234
 H         1.348170        -1.364986         1.192451
 H         2.061421        -0.765748        -0.341885
 H         2.154828         0.268171         1.186655
 H        -2.751040        -0.530622        -1.008397
 H        -3.165473        -0.933697         1.025161
 H        -2.456185         2.606629        -0.834927
 H        -3.139670         1.242348        -1.972747
 H        -4.596779         2.452014         0.530289
 H        -5.593381         0.052312        -1.406775
 H        -6.598887         0.939615        -0.185356
