19
Iteration:  2253
 C         1.392719        -0.383569         0.702503
 C         0.068594         0.020418         0.339918
 C        -0.957053         0.220756        -0.348685
 C        -2.414049         0.237057        -0.447795
 O        -3.047146        -0.051175         0.860682
 C        -2.978938         1.551192        -1.031728
 C        -4.408279         1.758459        -0.525179
 C        -5.712135         0.931678        -0.705395
 O        -5.554739         2.213406        -1.331866
 H         1.496906        -1.180709         1.412942
 H         2.011793        -0.490307        -0.156059
 H         1.803002         0.386799         1.352932
 H        -2.760597        -0.451086        -1.289156
 H        -2.421483        -0.713793         1.204999
 H        -2.621753         2.607413        -0.710454
 H        -3.001269         1.420296        -2.106706
 H        -4.384256         2.269870         0.486848
 H        -5.892470         0.036971        -1.351239
 H        -6.491645         1.084679         0.126987
