19
Iteration:  3735
 C         1.486311        -0.063767        -0.228609
 C         0.007739        -0.128307        -0.072608
 C        -1.191060        -0.068931         0.196379
 C        -2.660409         0.042945         0.323265
 O        -3.272816         0.197081         1.652434
 C        -3.082869         1.425299        -0.394029
 C        -4.588004         1.487281        -0.528337
 C        -5.406996         1.019621        -1.755760
 O        -4.968942         2.423558        -1.623763
 H         1.841358        -1.116578        -0.414029
 H         1.668738         0.667924        -1.076953
 H         1.777715         0.316978         0.743630
 H        -3.108045        -0.804742        -0.182265
 H        -3.006988        -0.598064         2.090579
 H        -2.740844         2.224730         0.245321
 H        -2.640510         1.434767        -1.390275
 H        -5.172776         1.647143         0.374051
 H        -5.020451         0.319128        -2.471302
 H        -6.498377         1.012372        -1.599189
