19
Iteration:   120charge 0 multiplicity 1
 C         1.487806         0.026473         0.378816
 C         0.122757        -0.184401         0.086047
 C        -1.063596        -0.122283        -0.202778
 C        -2.579275         0.013257        -0.392659
 O        -3.347871        -0.404057         0.770744
 C        -2.909200         1.491655        -0.519794
 C        -4.524768         1.730596        -0.253404
 C        -5.622142         1.191607        -1.125653
 O        -5.206558         2.646760        -1.145468
 H         2.036665        -0.889339         0.607850
 H         1.988154         0.411663        -0.527598
 H         1.588572         0.812618         1.147583
 H        -2.828365        -0.521215        -1.322998
 H        -2.811814        -1.202365         1.058648
 H        -2.503278         2.239120         0.156767
 H        -2.822926         1.718223        -1.592275
 H        -4.691817         1.732579         0.791166
 H        -5.362146         0.533176        -2.015548
 H        -6.663427         1.111508        -0.707957
