19
Iteration:   640
 C         1.311015        -0.196120        -0.393675
 C        -0.020207         0.183694         0.014527
 C        -1.248995         0.103315         0.078787
 C        -2.688574        -0.116639         0.244269
 O        -2.980060        -0.217878         1.643246
 C        -3.299947         1.338830        -0.043289
 C        -4.726147         1.378185        -0.596782
 C        -4.972691         1.380095        -2.091597
 O        -5.148824         2.609235        -1.254972
 H         1.678369         0.278164        -1.367683
 H         2.078963         0.169182         0.369016
 H         1.364908        -1.280747        -0.737846
 H        -3.130324        -0.928317        -0.413460
 H        -2.548967        -0.962812         2.029991
 H        -3.176235         1.980091         0.968704
 H        -2.759178         1.954119        -0.874916
 H        -5.713315         0.979661        -0.102128
 H        -4.122881         1.360388        -2.790658
 H        -5.857765         0.936778        -2.560350
