19
Iteration:  3359charge 0 multiplicity 1
 C         1.478118         0.064285        -0.018361
 C         0.049769        -0.149608         0.158660
 C        -1.154978        -0.009010         0.027376
 C        -2.674795        -0.065347         0.101092
 O        -3.189116        -0.151346         1.447609
 C        -3.069201         1.353283        -0.465578
 C        -4.647010         1.638069        -0.523525
 C        -5.455061         1.149377        -1.588674
 O        -5.108585         2.543359        -1.528178
 H         2.010797         0.056852         0.906894
 H         1.943151        -0.732883        -0.653554
 H         1.661661         1.034445        -0.528304
 H        -3.173942        -0.770479        -0.614426
 H        -2.452349        -0.690591         1.873053
 H        -2.540628         2.226663         0.127427
 H        -2.708215         1.296568        -1.546107
 H        -4.917882         1.792501         0.524225
 H        -4.931740         0.506610        -2.348871
 H        -6.451797         0.832552        -1.482373
