19
Iteration:   973
 C         1.529915         0.001182         0.381771
 C         0.134751        -0.218869         0.026400
 C        -1.099433        -0.177836        -0.144472
 C        -2.559326         0.029312        -0.173746
 O        -3.041252        -0.328248         1.097381
 C        -3.022459         1.399866        -0.690952
 C        -4.589342         1.692308        -0.400738
 C        -5.757259         1.285401        -1.245880
 O        -5.290838         2.584939        -1.365179
 H         1.633256         0.439445         1.388376
 H         2.044069        -0.956268         0.531878
 H         1.993853         0.680733        -0.339863
 H        -3.001384        -0.810500        -0.817919
 H        -2.681660         0.198824         1.821249
 H        -2.353570         2.091178        -0.087305
 H        -2.861491         1.788884        -1.783468
 H        -4.910275         1.956308         0.692139
 H        -5.471329         0.726772        -2.115346
 H        -6.717351         1.223647        -0.791406
