19
Iteration:  2364
 C         1.453959         0.053812         0.430989
 C        -0.025124         0.041591         0.282931
 C        -1.082856        -0.213186        -0.210347
 C        -2.574896         0.081616        -0.296711
 O        -3.217636        -0.294103         0.985096
 C        -3.001097         1.465596        -0.885731
 C        -4.421219         1.795443        -0.349240
 C        -5.568368         1.030424        -0.899939
 O        -5.236620         2.405684        -1.483982
 H         1.755091        -0.937035         0.529343
 H         1.773268         0.621493        -0.418366
 H         1.715326         0.709033         1.259015
 H        -3.008802        -0.590849        -0.987541
 H        -2.582504        -0.093638         1.738341
 H        -2.300697         2.395866        -0.767333
 H        -3.159820         1.374606        -2.007148
 H        -4.431687         2.310201         0.610178
 H        -5.488791         0.057490        -1.478179
 H        -6.368665         0.888513        -0.119848
