19
Iteration:  3686
 C         1.439483        -0.057513         0.030978
 C        -0.025523        -0.154685         0.063180
 C        -1.257831        -0.046779         0.112644
 C        -2.679612         0.031080         0.076266
 O        -3.053794         0.027448         1.446531
 C        -3.105830         1.400676        -0.465481
 C        -4.563470         1.861119        -0.492458
 C        -5.447517         1.012161        -1.350383
 O        -5.098922         2.322398        -1.803326
 H         1.804386        -1.066093         0.008612
 H         1.626931         0.476685        -0.904332
 H         1.789456         0.480755         0.947486
 H        -3.116576        -0.777452        -0.576241
 H        -2.595804        -0.836373         1.740290
 H        -2.564441         2.191751         0.155901
 H        -2.483657         1.466723        -1.378591
 H        -4.950544         2.509236         0.348710
 H        -4.876374         0.276832        -1.959809
 H        -6.504033         0.724844        -1.120686
