19
Iteration:  2500
 C         1.477376         0.108705        -0.266796
 C        -0.044862         0.039334        -0.072525
 C        -1.239641        -0.145897         0.149434
 C        -2.694974         0.062296         0.317450
 O        -3.169511        -0.431995         1.574984
 C        -3.206676         1.453333        -0.191461
 C        -4.641005         1.428475        -0.554013
 C        -5.233508         1.227596        -1.959176
 O        -5.041144         2.585628        -1.384360
 H         1.876586        -0.577033        -1.025846
 H         1.676442         1.117451        -0.629332
 H         2.121069         0.170377         0.593357
 H        -3.208718        -0.517050        -0.512255
 H        -2.463656        -0.140109         2.184727
 H        -2.869181         2.372218         0.393276
 H        -2.587654         1.500081        -1.207063
 H        -5.312056         1.161579         0.306875
 H        -4.612428         1.077396        -2.803671
 H        -6.250718         0.873881        -2.152424
