19
Iteration:  1679charge 0 multiplicity 1
 C         0.273113         0.081275        -1.555675
 C        -0.719868        -0.124078        -0.470975
 C        -1.656383         0.027294         0.315643
 C        -2.935980         0.170506         1.046449
 O        -2.842173         0.353701         2.506651
 C        -3.745457         1.244238         0.431003
 C        -3.871978         0.904956        -1.007925
 C        -3.446931         1.863217        -2.045311
 O        -4.854757         1.806582        -1.723375
 H         0.223193         1.077374        -2.044312
 H         1.205684         0.127843        -0.978806
 H         0.213860        -0.758103        -2.239180
 H        -3.645364        -0.762649         0.945121
 H        -2.896777        -0.499174         2.976648
 H        -4.788339         1.317784         0.794232
 H        -3.281510         2.279567         0.643186
 H        -4.243364        -0.111720        -1.196805
 H        -3.212443         2.861683        -1.634120
 H        -3.161096         1.477304        -3.068806
