19
Iteration:  1704
 C         0.425441         0.075659        -1.438014
 C        -0.694257        -0.116573        -0.388934
 C        -1.654248        -0.104961         0.425448
 C        -2.839815         0.041828         1.089227
 O        -2.730330         0.423820         2.483659
 C        -3.797591         1.102074         0.402640
 C        -4.092411         1.029913        -1.128802
 C        -3.519848         1.864780        -2.244054
 O        -4.934223         1.974479        -1.700145
 H         0.318927         1.135437        -1.860784
 H         1.489264         0.022659        -1.022483
 H         0.098571        -0.681917        -2.224441
 H        -3.349826        -1.025153         1.142200
 H        -2.760627        -0.352073         3.109428
 H        -4.741491         1.115570         0.882850
 H        -3.325232         2.052596         0.688074
 H        -4.404679         0.006260        -1.403460
 H        -3.047408         2.803772        -1.950134
 H        -3.552484         1.427851        -3.219127
