19
Iteration:  2825
 C         0.316144         0.223770        -1.662151
 C        -0.759319         0.235822        -0.545378
 C        -1.605118         0.159447         0.296964
 C        -2.908624        -0.048848         1.105436
 O        -2.893317         0.215429         2.552662
 C        -4.005620         0.857200         0.413979
 C        -3.981394         0.845390        -1.109527
 C        -3.297241         1.943005        -1.883710
 O        -4.699573         1.990987        -1.662291
 H        -0.192334         0.656469        -2.546802
 H         1.223335         0.814440        -1.332150
 H         0.731308        -0.780936        -1.764897
 H        -3.196347        -1.115012         0.930030
 H        -3.122565        -0.738262         2.810713
 H        -5.006767         0.419417         0.713282
 H        -4.051890         1.898689         0.651265
 H        -4.309273        -0.075157        -1.531602
 H        -2.610092         2.674582        -1.294102
 H        -3.062306         1.946903        -2.975596
