19
Iteration:  4556
 C         0.688553        -0.605390        -1.236439
 C        -0.403787        -0.295793        -0.347842
 C        -1.474213         0.015826         0.327465
 C        -2.895230         0.229353         1.140168
 O        -2.784667         0.778546         2.365687
 C        -3.853939         1.282717         0.427769
 C        -3.925400         1.150137        -1.164186
 C        -3.959170         2.159048        -2.219248
 O        -5.206238         1.580995        -1.790302
 H         1.020791         0.431940        -1.716607
 H         1.529341        -0.997905        -0.722504
 H         0.415973        -1.343112        -2.018490
 H        -3.510779        -0.711394         1.204946
 H        -2.255090         0.263634         2.980028
 H        -4.878824         1.448835         0.971424
 H        -3.314520         2.320054         0.624861
 H        -3.738567         0.116022        -1.389136
 H        -3.740495         3.174763        -1.683049
 H        -3.787678         1.902891        -3.310142
