19
Iteration:  1557charge 0 multiplicity 1
 C         0.262335        -0.034840        -1.670977
 C        -0.669760        -0.048794        -0.570742
 C        -1.571035        -0.008215         0.362885
 C        -2.844750         0.023725         1.123902
 O        -2.936412         0.573882         2.485020
 C        -3.982490         0.902943         0.490134
 C        -4.097818         0.827618        -1.140541
 C        -3.228905         1.878280        -1.857896
 O        -4.762942         2.027969        -1.684034
 H        -0.223577         0.323680        -2.587532
 H         0.968250         0.734062        -1.364388
 H         0.753953        -0.984554        -1.819379
 H        -3.312645        -1.010809         1.211305
 H        -2.803389         1.501112         2.350255
 H        -4.948789         0.714001         0.948992
 H        -3.894345         1.957550         0.772845
 H        -4.216145        -0.163642        -1.591634
 H        -2.592793         2.599205        -1.410456
 H        -2.933369         1.797857        -2.874650
