19
Iteration:  2879
 C        -0.119338         0.396644        -1.728228
 C        -0.776145         0.284797        -0.479752
 C        -1.603648         0.144713         0.411300
 C        -2.885245        -0.004898         1.074926
 O        -2.919302         0.049533         2.565706
 C        -4.044711         0.859100         0.440833
 C        -3.964117         0.865738        -1.099879
 C        -3.038568         1.801475        -1.776023
 O        -4.529159         1.964811        -1.829655
 H        -0.765014         0.846273        -2.439146
 H         0.882609         0.801252        -1.579944
 H        -0.052177        -0.614324        -2.114937
 H        -3.205058        -1.008480         0.844334
 H        -2.243211         0.797525         2.629959
 H        -5.052826         0.527743         0.950036
 H        -4.011862         1.973357         0.571576
 H        -4.151113        -0.050559        -1.614057
 H        -2.422886         2.527490        -1.139149
 H        -2.596756         1.379378        -2.710602
