19
Iteration:  3580
 C         1.506930        -0.305808         0.491635
 C         0.056972        -0.158350         0.220186
 C        -1.144787         0.021175        -0.053803
 C        -2.544612         0.307982        -0.251493
 O        -3.135055        -0.216099         1.025725
 C        -3.007296         1.713947        -0.882715
 C        -4.443252         1.887521        -0.576645
 C        -5.555741         0.994016        -0.803918
 O        -5.411899         2.136993        -1.592431
 H         1.799576        -1.243069         0.901030
 H         2.150553        -0.220310        -0.484243
 H         1.947861         0.481390         1.100963
 H        -2.918477        -0.390045        -1.045257
 H        -3.241747         0.531779         1.710710
 H        -2.468113         2.703286        -0.431886
 H        -2.588631         1.811201        -1.922880
 H        -4.548466         2.512427         0.286353
 H        -5.398434         0.094049        -1.408982
 H        -6.406387         1.036820        -0.120365
