19
Iteration:  1777
 C         0.808712        -0.079321        -0.932069
 C        -0.530750        -0.146312        -0.481654
 C        -1.637121         0.068165         0.015457
 C        -2.885471         0.122192         0.899637
 O        -2.617246         0.381643         2.195349
 C        -3.935447         1.087146         0.406675
 C        -4.419420         0.941865        -1.010370
 C        -3.805251         1.614516        -2.099086
 O        -4.938638         2.218614        -1.549439
 H         1.109142         0.960888        -0.909469
 H         1.372572        -0.677108        -0.230159
 H         0.732949        -0.520334        -1.894622
 H        -3.348421        -0.816905         0.971628
 H        -1.904812         1.004833         2.123337
 H        -4.852793         0.994107         1.115323
 H        -3.524972         2.201875         0.298447
 H        -5.174846         0.154080        -1.186537
 H        -2.871213         2.297709        -1.805096
 H        -3.772772         1.089853        -3.122649
