19
Iteration:  3799
 C         1.286132        -0.184292        -0.491595
 C        -0.026752        -0.051525         0.118301
 C        -1.208442         0.000656         0.347302
 C        -2.687644         0.113983         0.509574
 O        -3.161531         0.249168         1.813796
 C        -3.109903         1.399131        -0.370473
 C        -4.593869         1.202227        -0.786769
 C        -5.157858         1.164648        -2.129151
 O        -5.092085         2.411573        -1.397897
 H         1.444924        -1.135599        -1.045773
 H         1.532183         0.673142        -1.264889
 H         2.167905        -0.156824         0.170116
 H        -3.151231        -0.799698        -0.012711
 H        -2.517802         0.076720         2.563488
 H        -3.060048         2.311055         0.116168
 H        -2.332487         1.541290        -1.148634
 H        -5.234123         0.832222         0.039363
 H        -4.558397         1.043301        -3.077347
 H        -6.251595         0.907475        -2.078274
