19
Iteration:  3272
 C         1.358547        -0.005436        -0.442422
 C        -0.014506         0.068154        -0.060529
 C        -1.193861         0.049861         0.302183
 C        -2.686260         0.073356         0.391925
 O        -3.312576        -0.194608         1.684851
 C        -3.187943         1.271476        -0.281333
 C        -4.644523         1.273196        -0.565534
 C        -4.985210         1.364346        -2.117396
 O        -5.032911         2.456987        -1.275525
 H         1.966404         0.376457         0.385066
 H         1.736669        -1.078889        -0.721090
 H         1.399039         0.530728        -1.445755
 H        -3.037110        -0.807909        -0.207930
 H        -3.170034         0.540516         2.296777
 H        -2.982026         2.211951         0.327376
 H        -2.581457         1.272330        -1.235135
 H        -5.476306         0.781110         0.006365
 H        -4.154328         1.456712        -2.913450
 H        -5.926071         0.969682        -2.480316
