19
Iteration:   890
 C         1.308092         0.023778         0.545341
 C         0.090787         0.010151        -0.228729
 C        -1.084779        -0.177772        -0.353379
 C        -2.593826        -0.130090        -0.232083
 O        -3.139902        -0.103112         1.149746
 C        -2.973469         1.255562        -0.731133
 C        -4.423821         1.635227        -0.397529
 C        -5.628385         1.252433        -1.214256
 O        -5.239722         2.575969        -1.151165
 H         1.344663         0.920566         1.196755
 H         1.434198        -0.891300         1.167314
 H         2.232702        -0.001757        -0.067297
 H        -3.038934        -0.933040        -0.903179
 H        -2.396006        -0.268415         1.802877
 H        -2.196358         1.940703        -0.330750
 H        -3.048659         1.415584        -1.787131
 H        -4.719539         1.665190         0.687654
 H        -5.202500         0.786264        -2.201011
 H        -6.669103         0.966929        -0.955953
