19
Iteration:   309
 C         1.465162        -0.294800         0.078055
 C         0.034905         0.105161         0.184798
 C        -1.157750         0.228225         0.028298
 C        -2.551912         0.156281        -0.153932
 O        -3.237444        -0.497413         0.939737
 C        -3.060403         1.516110        -0.542694
 C        -4.488011         1.711597        -0.370431
 C        -5.409331         1.121579        -1.331204
 O        -5.308727         2.517055        -1.214534
 H         1.625952        -1.038714        -0.718365
 H         2.035452         0.601157        -0.167094
 H         1.887248        -0.709026         0.995618
 H        -2.855603        -0.502656        -1.059611
 H        -2.677401        -0.465154         1.785099
 H        -2.478794         2.253927         0.077117
 H        -2.723800         1.605749        -1.559299
 H        -4.764308         1.683350         0.659252
 H        -4.982978         0.573478        -2.127758
 H        -6.326794         0.750932        -0.949801
