19
Iteration:   174charge 0 multiplicity 1
 C         1.239849        -0.082536         0.470957
 C        -0.059853         0.098554        -0.055348
 C        -1.203959         0.031147        -0.384576
 C        -2.656478         0.000900        -0.331219
 O        -3.207626        -0.587474         0.827288
 C        -2.908830         1.567815        -0.597848
 C        -4.296612         1.811294        -0.281107
 C        -5.311311         1.132272        -1.053029
 O        -5.259896         2.476305        -1.122794
 H         1.476371        -1.152107         0.605522
 H         2.014521         0.450730        -0.122446
 H         1.281179         0.324802         1.512754
 H        -3.102435        -0.529743        -1.262733
 H        -3.465588         0.122510         1.500176
 H        -2.269657         2.336153        -0.062309
 H        -2.611239         1.834425        -1.686662
 H        -4.362698         2.014516         0.765893
 H        -4.927307         0.577260        -2.024587
 H        -6.186842         0.668672        -0.471506
