19
Iteration:  3032charge 0 multiplicity 1
 C         0.857496         0.034693        -0.929091
 C        -0.525322         0.182064        -0.388503
 C        -1.605845         0.109374         0.090933
 C        -2.867810         0.018131         0.843772
 O        -2.681027         0.008618         2.292520
 C        -3.827974         1.127203         0.392844
 C        -4.412403         0.951274        -1.048729
 C        -3.806167         1.749155        -2.203425
 O        -5.057523         2.148862        -1.572012
 H         1.388651         0.957825        -1.048758
 H         1.609526        -0.591458        -0.353749
 H         0.859320        -0.446993        -1.909122
 H        -3.215106        -1.034988         0.637763
 H        -2.515023         0.924486         2.546590
 H        -4.757802         1.243182         1.087991
 H        -3.302795         2.106526         0.337809
 H        -5.122127         0.127233        -1.220071
 H        -2.964255         2.462610        -2.170111
 H        -3.898517         1.252534        -3.246213
