19
Iteration:   195charge 0 multiplicity 1
 C         1.419075        -0.087762         0.540517
 C         0.015710        -0.034753        -0.030805
 C        -1.177725        -0.114322        -0.366531
 C        -2.611244         0.132186        -0.415622
 O        -3.187768        -0.531631         0.824766
 C        -2.952299         1.574987        -0.560093
 C        -4.480664         1.863289        -0.266664
 C        -5.462986         1.063224        -1.006186
 O        -5.309706         2.578694        -1.216584
 H         1.766925        -1.142159         0.550270
 H         2.174668         0.514199        -0.026674
 H         1.432233         0.256397         1.604708
 H        -2.869328        -0.527460        -1.316247
 H        -2.302087        -0.583314         1.304839
 H        -2.337927         2.287287         0.077065
 H        -2.735646         1.911728        -1.670415
 H        -4.629809         2.108546         0.817904
 H        -5.086988         0.547167        -1.989419
 H        -6.459469         0.700675        -0.579942
