19
Iteration:   792charge 0 multiplicity 1
 C         1.568281        -0.217620         0.076255
 C         0.205790         0.146582        -0.053947
 C        -1.023717         0.081088         0.179297
 C        -2.484121         0.141342         0.007986
 O        -3.385377        -0.368271         1.065984
 C        -3.101870         1.400285        -0.566126
 C        -4.696442         1.502884        -0.386359
 C        -5.581429         1.235804        -1.485788
 O        -5.201046         2.618980        -1.221651
 H         2.355251         0.561176        -0.080163
 H         1.869575        -0.675690         1.070441
 H         1.935119        -1.063215        -0.570259
 H        -2.522362        -0.574321        -0.878939
 H        -2.826077        -0.954130         1.605827
 H        -2.593234         2.348985        -0.153494
 H        -2.692566         1.352326        -1.587028
 H        -4.980961         1.378794         0.705424
 H        -5.305963         0.926384        -2.532264
 H        -6.502335         0.809071        -1.086725
