19
Iteration:  3059charge 0 multiplicity 1
 C         0.998958        -0.104586        -0.779775
 C        -0.426744         0.140749        -0.425457
 C        -1.498775         0.232555         0.078296
 C        -2.829624         0.090226         0.660622
 O        -2.687106         0.084827         2.070655
 C        -3.800838         1.218451         0.330997
 C        -4.514729         0.942105        -0.928775
 C        -3.957059         1.702191        -2.114685
 O        -5.132486         2.137117        -1.476137
 H         1.691381         0.764124        -0.589436
 H         1.377040        -0.821684        -0.076344
 H         1.423739        -0.589623        -1.659572
 H        -3.120620        -0.893439         0.308640
 H        -3.558134         0.128472         2.461578
 H        -4.659147         1.131973         1.084249
 H        -3.446589         2.255244         0.367000
 H        -5.244274         0.135804        -0.944241
 H        -2.931197         2.103856        -2.038908
 H        -4.061103         1.169582        -3.006707
