19
Iteration:  3438charge 0 multiplicity 1
 C         1.490760        -0.163720         0.491501
 C        -0.021625        -0.045265         0.137901
 C        -1.219920        -0.007097        -0.185660
 C        -2.620572         0.093937        -0.253380
 O        -2.900267        -0.085648         1.150586
 C        -3.071433         1.482492        -0.745360
 C        -4.514570         1.820479        -0.417910
 C        -5.548808         0.940942        -1.147996
 O        -5.272018         2.314862        -1.491671
 H         1.454856        -0.659291         1.454296
 H         2.174074        -0.649328        -0.294058
 H         1.844142         0.847892         0.527211
 H        -3.200437        -0.692001        -0.846140
 H        -3.872978         0.188060         1.289402
 H        -2.422310         2.269039        -0.131493
 H        -2.820537         1.576443        -1.846032
 H        -4.606001         2.330800         0.539392
 H        -5.149836         0.289239        -1.884586
 H        -6.559317         0.958742        -0.656265
