19
Iteration:  1634
 C         0.148808        -0.029870        -1.592500
 C        -0.923757         0.203137        -0.578034
 C        -1.700910         0.093065         0.393092
 C        -2.897119         0.098522         1.172642
 O        -2.855616         0.193221         2.587931
 C        -3.786061         1.259801         0.545130
 C        -3.893330         1.035587        -0.970458
 C        -3.308500         1.951677        -2.089005
 O        -4.732895         1.662542        -1.923965
 H        -0.170709         0.544020        -2.466249
 H         1.197654         0.149770        -1.443191
 H        -0.011878        -1.026636        -1.956688
 H        -3.568757        -0.821092         1.062274
 H        -1.904649         0.080977         2.876307
 H        -4.825986         1.124286         0.941701
 H        -3.341078         2.265019         0.781787
 H        -3.752291        -0.043837        -1.105073
 H        -2.938324         2.840566        -1.626544
 H        -2.924108         1.433761        -2.971147
