19
Iteration:  2432charge 0 multiplicity 1
 C         1.509733         0.201770         0.094991
 C         0.061880         0.054452        -0.005743
 C        -1.175093        -0.230029         0.016804
 C        -2.628905        -0.016882         0.002961
 O        -3.311724        -0.428649         1.273959
 C        -2.981823         1.414250        -0.528553
 C        -4.551539         1.652382        -0.410148
 C        -5.606798         1.162804        -1.353922
 O        -4.996679         2.488249        -1.487487
 H         2.023195        -0.672876        -0.222059
 H         1.761194         1.082133        -0.512649
 H         1.840976         0.616384         1.024280
 H        -3.094105        -0.768286        -0.676492
 H        -2.975203         0.027911         2.031273
 H        -2.398942         2.360496        -0.185291
 H        -2.750198         1.335539        -1.703504
 H        -4.955272         2.105280         0.480611
 H        -5.354709         0.425131        -2.136441
 H        -6.686886         1.246304        -1.225543
