19
Iteration:  4728
 C         1.077319        -0.508079        -0.689170
 C        -0.334249        -0.164428        -0.216005
 C        -1.463874        -0.105077         0.156129
 C        -2.721787         0.129281         0.782101
 O        -2.759340         0.555586         2.181801
 C        -3.640250         1.287432         0.253670
 C        -4.488368         1.034540        -1.086149
 C        -4.342458         1.713361        -2.432166
 O        -5.191583         2.312845        -1.479795
 H         1.698229         0.408837        -0.806495
 H         1.454269        -1.254288         0.083434
 H         0.992864        -0.976349        -1.682190
 H        -3.231283        -0.855391         0.831269
 H        -1.875301         0.284159         2.484913
 H        -4.285290         1.555715         1.033860
 H        -3.163472         2.256731         0.010576
 H        -5.129483         0.121936        -1.115944
 H        -3.398910         2.202096        -2.683676
 H        -4.877938         1.324824        -3.326341
