19
Iteration:  4314
 C         0.566439        -0.180862        -1.187781
 C        -0.645589        -0.104662        -0.302803
 C        -1.722158         0.213829         0.184440
 C        -2.879395         0.185737         1.016369
 O        -2.602943         0.607027         2.328975
 C        -3.972216         1.128672         0.552223
 C        -4.461618         1.078305        -0.964480
 C        -3.720065         1.178705        -2.199763
 O        -4.631731         2.172145        -1.835921
 H         0.506781         0.428667        -2.204584
 H         1.568688         0.242591        -0.810112
 H         0.893793        -1.194040        -1.508802
 H        -3.239914        -0.856978         0.940352
 H        -1.641318         0.958816         2.383141
 H        -4.769855         0.786538         1.190928
 H        -3.554948         2.163848         0.635094
 H        -5.289238         0.456554        -1.066201
 H        -2.719381         1.491745        -2.144108
 H        -3.966276         0.664494        -3.199408
