19
Iteration:   210charge 0 multiplicity 1
 C         1.421318        -0.108413         0.509248
 C         0.102478        -0.166484         0.051596
 C        -1.066460        -0.120274        -0.297585
 C        -2.509683         0.097653        -0.423455
 O        -3.083362        -0.399198         0.767634
 C        -3.057331         1.633867        -0.533138
 C        -4.530174         1.802564        -0.222999
 C        -5.623867         1.193894        -1.048639
 O        -5.307606         2.514255        -1.258689
 H         1.947050        -1.062565         0.437602
 H         2.001174         0.580013        -0.086230
 H         1.410188         0.290146         1.527263
 H        -3.019131        -0.405263        -1.243442
 H        -2.707750        -1.297404         0.986747
 H        -2.513916         2.171624         0.224483
 H        -2.931629         1.910589        -1.522099
 H        -4.847836         2.127451         0.724526
 H        -5.331338         0.449119        -1.739520
 H        -6.582955         0.993204        -0.635169
