19
Iteration:  2416
 C         1.497828         0.244523         0.193517
 C         0.098850        -0.076670        -0.113114
 C        -1.159845        -0.128501         0.045896
 C        -2.623428        -0.018613         0.011309
 O        -3.324882        -0.389654         1.160555
 C        -2.967391         1.353111        -0.574252
 C        -4.424654         1.729010        -0.455879
 C        -5.655806         1.188308        -1.250805
 O        -5.107173         2.439446        -1.507098
 H         2.082720        -0.740179         0.236144
 H         1.870107         1.049502        -0.477523
 H         1.480651         0.488324         1.304353
 H        -2.873917        -0.722315        -0.785155
 H        -2.931433         0.126548         1.899018
 H        -2.449050         2.104064        -0.018711
 H        -2.713624         1.433193        -1.568718
 H        -4.630475         1.971398         0.617576
 H        -5.524608         0.461911        -2.086781
 H        -6.583142         1.116588        -0.614622
