19
Iteration:   737
 C         1.430737        -0.142498        -0.035086
 C         0.009439        -0.092922         0.166903
 C        -1.164581        -0.069133        -0.185913
 C        -2.652538         0.125259        -0.049504
 O        -3.040792        -0.335370         1.287750
 C        -3.194455         1.695018        -0.233661
 C        -4.702100         1.580168        -0.391357
 C        -5.215419         1.134292        -1.733105
 O        -5.254302         2.563004        -1.244306
 H         1.842960         0.686185        -0.687505
 H         2.003356        -0.056660         0.951018
 H         1.681842        -1.062525        -0.659444
 H        -3.019159        -0.421223        -0.956574
 H        -2.538225        -1.111117         1.487224
 H        -3.056318         2.273152         0.772768
 H        -2.510133         2.018503        -1.056049
 H        -5.219943         1.245717         0.590828
 H        -4.408285         0.996699        -2.500933
 H        -6.190589         0.624073        -1.832135
