19
Iteration:   476
 C         1.447446         0.007173        -0.365052
 C         0.010362        -0.180812        -0.202953
 C        -1.164350        -0.029008         0.133011
 C        -2.615567         0.103115         0.391291
 O        -2.951188        -0.409800         1.773286
 C        -3.303938         1.383148        -0.057993
 C        -4.824145         1.441397        -0.591391
 C        -5.174070         1.334421        -2.078758
 O        -5.082753         2.654131        -1.412689
 H         1.761099         0.197785        -1.397970
 H         1.531906         0.920619         0.248830
 H         2.098472        -0.849317        -0.186092
 H        -3.091084        -0.559721        -0.393167
 H        -3.934245        -0.258023         1.904317
 H        -3.212738         2.260437         0.633642
 H        -2.748594         1.931721        -0.849489
 H        -5.788948         1.092696         0.057875
 H        -4.404995         1.217904        -2.825664
 H        -6.158000         1.008313        -2.421940
