19
Iteration:  4005charge 0 multiplicity 1
 C         1.155723        -0.404283        -0.384005
 C        -0.205281        -0.055902        -0.165932
 C        -1.369656         0.216085         0.076165
 C        -2.748858         0.314490         0.551138
 O        -2.605196         0.312213         1.998874
 C        -3.422546         1.563038         0.037419
 C        -4.539118         1.163481        -0.834287
 C        -4.693461         1.189415        -2.333281
 O        -5.352206         2.167122        -1.506385
 H         1.240841        -0.997998        -1.266305
 H         1.824593         0.482887        -0.357605
 H         1.323293        -1.004266         0.552621
 H        -3.328649        -0.578833         0.231871
 H        -2.667749        -0.595325         2.416111
 H        -3.934107         1.951977         0.968863
 H        -2.664708         2.266618        -0.514136
 H        -5.251490         0.609388        -0.285651
 H        -3.897683         1.553442        -2.979502
 H        -5.435870         0.415408        -2.741795
