19
Iteration:  4398
 C         0.439913        -0.253905        -1.347766
 C        -0.758962        -0.144042        -0.425735
 C        -1.684054        -0.010039         0.365267
 C        -2.942916         0.201619         1.047582
 O        -2.555447         0.606128         2.516092
 C        -3.931385         1.384347         0.384282
 C        -4.094401         1.004017        -1.001529
 C        -3.530984         1.700034        -2.164597
 O        -4.909343         1.755495        -1.837121
 H         0.360693         0.439883        -2.099014
 H         1.359924        -0.142065        -0.730686
 H         0.393581        -1.253821        -1.801051
 H        -3.489911        -0.774964         1.144909
 H        -2.278996         1.488785         2.368717
 H        -4.861730         1.450909         0.958440
 H        -3.328709         2.330075         0.607175
 H        -4.320318        -0.090248        -1.249408
 H        -3.007059         2.579896        -1.878837
 H        -3.340320         1.186103        -3.186843
