19
Iteration:  2143
 C         1.608705        -0.174880         0.214246
 C         0.103065        -0.100585         0.173204
 C        -1.097959         0.007445        -0.131606
 C        -2.580943         0.134765        -0.042790
 O        -3.101512         0.001806         1.258324
 C        -3.146724         1.553020        -0.569521
 C        -4.650483         1.710740        -0.475697
 C        -5.531417         0.903152        -1.322224
 O        -5.324186         2.360196        -1.546872
 H         1.906986        -0.726275         1.047846
 H         1.889229        -0.852468        -0.546515
 H         2.079505         0.744406         0.021879
 H        -3.129327        -0.635767        -0.687796
 H        -2.296766        -0.273967         1.791027
 H        -2.709106         2.253806         0.228623
 H        -2.750506         1.884486        -1.517797
 H        -5.090655         1.983249         0.494663
 H        -5.059131         0.464246        -2.208884
 H        -6.483355         0.560028        -0.906251
