19
Iteration:  3543charge 0 multiplicity 1
 C         1.484805        -0.438292         0.532537
 C         0.082245         0.041211         0.281398
 C        -1.045603         0.289862        -0.122991
 C        -2.536763         0.211942        -0.320460
 O        -3.265909        -0.100783         0.913531
 C        -3.099716         1.532644        -0.912182
 C        -4.403582         1.933723        -0.506816
 C        -5.478723         0.964977        -0.765602
 O        -5.400876         2.151176        -1.546091
 H         1.432625        -1.432214         1.108574
 H         1.893647        -0.584033        -0.503422
 H         2.061208         0.323544         1.184071
 H        -2.727550        -0.637918        -0.979882
 H        -2.599114        -0.423302         1.607207
 H        -2.494347         2.292176        -0.424537
 H        -2.945094         1.507859        -2.012057
 H        -4.502139         2.568348         0.429678
 H        -5.150125        -0.002499        -1.202142
 H        -6.341366         0.749302        -0.084795
