19
Iteration:  4815charge 0 multiplicity 1
 C         0.956403        -0.300941        -0.710142
 C        -0.455407        -0.203247        -0.334850
 C        -1.536685        -0.011330         0.136240
 C        -2.877852         0.238322         0.711414
 O        -2.807399         0.160653         2.137438
 C        -3.505291         1.648277         0.315984
 C        -4.497287         1.391828        -0.749114
 C        -4.225707         1.144943        -2.231348
 O        -5.002667         2.283336        -1.745896
 H         1.530181         0.630436        -0.531742
 H         1.575564        -1.137519        -0.214613
 H         1.142583        -0.493461        -1.776878
 H        -3.450416        -0.558576         0.127685
 H        -1.943824         0.005520         2.410207
 H        -3.881873         2.067115         1.273628
 H        -2.757295         2.360103        -0.141419
 H        -5.393209         0.796041        -0.506618
 H        -3.318725         1.503278        -2.575652
 H        -4.836402         0.426510        -2.713319
