19
Iteration:  1744charge 0 multiplicity 1
 C         0.616352         0.002811        -1.177748
 C        -0.543750        -0.008514        -0.363419
 C        -1.612112        -0.196501         0.229762
 C        -2.969861         0.007270         1.002673
 O        -2.708776         0.528650         2.305717
 C        -3.822903         1.037445         0.295155
 C        -4.305177         0.897722        -1.097917
 C        -3.663363         1.759321        -2.176410
 O        -4.937691         2.152109        -1.521411
 H         0.950930         0.984271        -1.526937
 H         1.488749        -0.413728        -0.669984
 H         0.374211        -0.595418        -2.030019
 H        -3.445354        -0.943579         1.033540
 H        -1.805974         0.281306         2.514499
 H        -4.702821         1.220921         0.995387
 H        -3.361859         2.095525         0.391517
 H        -4.980365         0.082369        -1.407248
 H        -2.870344         2.511740        -1.829838
 H        -3.682964         1.483006        -3.276861
