19
Iteration:  4984
 C         0.490525         0.038119        -1.085193
 C        -0.813843         0.140371        -0.494314
 C        -1.836236         0.034789         0.091721
 C        -3.050657         0.142087         0.869844
 O        -2.616423         0.049549         2.254907
 C        -3.786752         1.501687         0.554899
 C        -4.622400         1.539279        -0.864174
 C        -4.012364         0.731980        -1.961556
 O        -3.880540         2.150042        -1.884498
 H         1.225029         0.706781        -0.617377
 H         0.869938        -0.971207        -1.099722
 H         0.598185         0.450125        -2.125049
 H        -3.956268        -0.476059         0.821216
 H        -2.246658         0.810959         2.618176
 H        -4.505488         1.771578         1.294829
 H        -3.151681         2.363554         0.526136
 H        -5.701116         1.776657        -0.881991
 H        -3.072357         0.121385        -1.723590
 H        -4.482600         0.298050        -2.804715
