19
Iteration:  2739charge 0 multiplicity 1
 C         0.834244         0.115813        -0.861567
 C        -0.579992        -0.090309        -0.497180
 C        -1.693386        -0.079901        -0.016865
 C        -2.882340        -0.022006         0.749243
 O        -2.564086         0.141772         2.182004
 C        -3.866055         1.097587         0.441053
 C        -4.221107         0.999528        -0.998619
 C        -3.810693         2.035410        -2.000739
 O        -5.157623         2.005759        -1.550639
 H         0.981509         0.217083        -1.960912
 H         1.184708         0.993818        -0.257658
 H         1.565802        -0.697554        -0.710697
 H        -3.451126        -0.998311         0.618891
 H        -2.647235         1.070712         2.439503
 H        -4.723714         1.095517         1.039185
 H        -3.475753         2.068489         0.472630
 H        -4.295079         0.017609        -1.465694
 H        -3.271338         2.991365        -1.728009
 H        -3.680197         1.779703        -3.055586
