19
Iteration:  2340
 C         1.428022        -0.050664         0.599121
 C         0.036607         0.052133         0.199199
 C        -1.177638         0.053739        -0.185528
 C        -2.612806        -0.025280        -0.421159
 O        -3.146386        -0.174064         0.872606
 C        -2.951534         1.433923        -0.905771
 C        -4.331502         1.809582        -0.422305
 C        -5.572291         1.019066        -0.816672
 O        -5.371978         2.315355        -1.385672
 H         1.494335        -1.141041         0.734329
 H         1.951412         0.270048        -0.288966
 H         1.803525         0.596921         1.429698
 H        -3.000350        -0.755292        -1.066886
 H        -2.464933        -0.208325         1.593385
 H        -2.164158         2.137940        -0.579384
 H        -2.889870         1.417274        -1.973143
 H        -4.214244         2.440082         0.486029
 H        -5.653034         0.105645        -1.445626
 H        -6.400650         0.957535        -0.007151
