19
Iteration:  4256
 C         0.665297        -0.076329        -1.024931
 C        -0.685621         0.041888        -0.472534
 C        -1.738784         0.185710         0.132584
 C        -2.976450         0.225478         0.792162
 O        -2.646210         0.385410         2.302081
 C        -3.755034         1.430366         0.434289
 C        -4.534396         1.102782        -0.791708
 C        -3.866917         0.887101        -2.083945
 O        -4.537268         2.154569        -1.794651
 H         0.626580         0.297145        -2.023952
 H         1.301554         0.616521        -0.398190
 H         1.094090        -1.128865        -1.041509
 H        -3.532017        -0.722164         0.747219
 H        -1.734388         0.285859         2.446113
 H        -4.321310         1.999183         1.176195
 H        -3.195939         2.245426        -0.018951
 H        -5.435003         0.449416        -0.623023
 H        -2.727914         1.033370        -2.107716
 H        -4.417133         0.320840        -2.830038
