19
Iteration:    54
 C         1.598611        -0.170927         0.160607
 C         0.148652         0.224591         0.105141
 C        -1.077207         0.155682        -0.046916
 C        -2.527124        -0.058283        -0.250703
 O        -3.170742        -0.778833         1.005251
 C        -3.204375         1.369133        -0.505636
 C        -4.671635         1.568249        -0.296911
 C        -5.557560         1.463662        -1.362371
 O        -5.154631         2.791440        -1.145730
 H         1.651543        -1.196662         0.545577
 H         2.007791        -0.309887        -0.868978
 H         2.250878         0.559392         0.659853
 H        -2.712010        -0.736439        -1.078089
 H        -4.075111        -0.968899         0.731627
 H        -2.627290         2.027755         0.179942
 H        -3.030619         1.590199        -1.628907
 H        -4.983886         1.521681         0.750957
 H        -5.091568         0.900668        -2.266650
 H        -6.686335         1.382114        -1.153643
