19
Iteration:  3648charge 0 multiplicity 1
 C         1.368998        -0.165619         0.263120
 C        -0.018198         0.045182         0.073855
 C        -1.195403        -0.079559        -0.122746
 C        -2.633220         0.217588        -0.010690
 O        -3.175347        -0.124788         1.328768
 C        -2.928135         1.567478        -0.636958
 C        -4.422430         1.811179        -0.482031
 C        -5.567784         0.988460        -1.126453
 O        -5.167019         2.196339        -1.725252
 H         1.603465        -1.243596         0.397453
 H         1.945404         0.097118        -0.616136
 H         1.838291         0.392944         1.048858
 H        -3.223989        -0.511875        -0.609444
 H        -2.436213        -0.503150         1.837351
 H        -2.247525         2.420096        -0.118133
 H        -2.797921         1.498531        -1.737236
 H        -4.570370         2.591532         0.227210
 H        -5.343014         0.049750        -1.656302
 H        -6.537464         1.037665        -0.683893
