19
Iteration:  2887
 C        -0.104476         0.402731        -1.744903
 C        -0.781447         0.296402        -0.436294
 C        -1.672663         0.111394         0.393299
 C        -2.921096        -0.007085         1.136839
 O        -2.848498         0.017161         2.606955
 C        -4.033276         0.893203         0.367118
 C        -3.962479         0.848055        -1.107901
 C        -3.065601         1.780329        -1.791462
 O        -4.496272         1.992585        -1.850219
 H        -0.558343         0.989431        -2.530287
 H         0.835502         0.881944        -1.733269
 H        -0.051272        -0.590261        -2.203376
 H        -3.362733        -1.015563         1.126518
 H        -2.464810         0.909499         2.940007
 H        -4.938955         0.367431         0.753254
 H        -3.967666         1.961576         0.776587
 H        -4.152580        -0.109441        -1.598758
 H        -2.552292         2.652007        -1.405767
 H        -2.749050         1.474613        -2.739632
