19
Iteration:  1662charge 0 multiplicity 1
 C         0.187706         0.029308        -1.524562
 C        -0.817637         0.019115        -0.585191
 C        -1.659166         0.076061         0.358602
 C        -2.932986         0.132720         1.049305
 O        -2.890384         0.314484         2.445815
 C        -3.737885         1.330056         0.510393
 C        -3.921259         0.953501        -0.977733
 C        -3.325089         1.903067        -1.984495
 O        -4.820814         1.658138        -1.759207
 H        -0.056381         0.890725        -2.190393
 H         1.246150         0.148047        -1.136964
 H         0.202633        -0.870257        -2.215798
 H        -3.630610        -0.675944         0.900683
 H        -2.564969        -0.492624         2.872508
 H        -4.706233         1.386721         1.041238
 H        -3.139659         2.193677         0.503698
 H        -3.576852        -0.067665        -1.176925
 H        -2.800785         2.761782        -1.545764
 H        -3.107635         1.420404        -2.906835
