19
Iteration:  2640
 C         1.306307        -0.224231        -0.592866
 C        -0.109241        -0.072275        -0.243546
 C        -1.326518         0.262109         0.060242
 C        -2.728279         0.199515         0.510051
 O        -2.819769        -0.054186         2.023504
 C        -3.685189         1.333810         0.217131
 C        -4.639182         1.059201        -0.971804
 C        -4.328063         1.805694        -2.241146
 O        -5.451017         2.192509        -1.290059
 H         1.274135        -0.446080        -1.681828
 H         1.996333         0.672504        -0.432998
 H         1.943139        -0.958678        -0.089178
 H        -3.083084        -0.768342         0.124891
 H        -2.792855        -1.058382         2.061593
 H        -4.393382         1.345508         1.020644
 H        -3.223007         2.344595         0.212222
 H        -5.091053         0.062210        -0.960337
 H        -3.410142         2.408406        -2.364165
 H        -4.767266         1.416260        -3.198852
