19
Iteration:  4048
 C         1.240576        -0.330583        -0.621564
 C        -0.186765        -0.137817        -0.248306
 C        -1.358530         0.185397         0.085706
 C        -2.711526         0.278586         0.622617
 O        -2.910788         0.355879         2.098053
 C        -3.461717         1.539096         0.107855
 C        -4.685419         1.228801        -0.726549
 C        -4.514330         1.096320        -2.198504
 O        -5.273529         2.211095        -1.648557
 H         1.438963        -0.762578        -1.615852
 H         1.838203         0.624773        -0.520076
 H         1.739651        -1.100044         0.120835
 H        -3.145848        -0.724715         0.497865
 H        -2.396664        -0.390184         2.598900
 H        -3.834732         2.156839         0.966561
 H        -2.703006         2.153910        -0.430935
 H        -5.336877         0.486664        -0.364676
 H        -3.511710         1.368755        -2.470286
 H        -5.011216         0.406401        -2.957662
