19
Iteration:   894charge 0 multiplicity 1
 C         1.274454         0.022292         0.563655
 C         0.093151         0.030252        -0.256197
 C        -1.098617        -0.176896        -0.372091
 C        -2.609155        -0.158001        -0.229614
 O        -3.118014        -0.114410         1.176823
 C        -2.987552         1.294029        -0.736845
 C        -4.484948         1.634844        -0.420567
 C        -5.580601         1.225964        -1.212459
 O        -5.208267         2.563486        -1.135146
 H         1.334328         0.883698         1.318000
 H         1.406846        -0.903219         1.168901
 H         2.199069         0.004007        -0.091257
 H        -2.983030        -0.984413        -0.962222
 H        -2.396397        -0.245120         1.781129
 H        -2.277341         2.071327        -0.322137
 H        -2.946867         1.351177        -1.934250
 H        -4.509593         1.831670         0.598395
 H        -5.265635         0.803241        -2.089394
 H        -6.620616         1.127769        -0.918176
