19
Iteration:  2453
 C         1.428009         0.197636        -0.089506
 C        -0.016536         0.076333         0.188221
 C        -1.175184        -0.100936         0.044201
 C        -2.697429        -0.107364         0.003209
 O        -3.193175        -0.379229         1.291510
 C        -3.178241         1.257076        -0.448668
 C        -4.573876         1.674896        -0.398816
 C        -5.402316         1.195368        -1.498739
 O        -4.974145         2.549461        -1.503040
 H         1.757637        -0.724536        -0.488174
 H         1.787445         1.055602        -0.667427
 H         1.947793         0.380528         0.837214
 H        -3.079437        -0.927676        -0.575709
 H        -2.643152         0.050295         2.013804
 H        -2.567439         1.902752         0.261045
 H        -2.661892         1.461124        -1.455733
 H        -5.057996         1.943761         0.525995
 H        -5.014143         0.490873        -2.271384
 H        -6.402290         0.914211        -1.140698
