19
Iteration:  3783charge 0 multiplicity 1
 C         1.296615        -0.168081        -0.470203
 C        -0.028831         0.053151         0.174201
 C        -1.216720        -0.053971         0.263649
 C        -2.637126         0.192955         0.407477
 O        -3.202746         0.187842         1.865873
 C        -3.104464         1.270958        -0.457672
 C        -4.535792         1.347766        -0.669505
 C        -5.193191         1.108646        -2.044087
 O        -5.094828         2.445784        -1.454933
 H         1.169751        -1.154604        -0.890020
 H         1.312573         0.526752        -1.200455
 H         2.041268        -0.111423         0.320069
 H        -3.146428        -0.667967        -0.020205
 H        -2.514970        -0.364490         2.395332
 H        -2.627127         2.243464         0.060248
 H        -2.640339         1.212717        -1.463718
 H        -5.263304         1.105081         0.106423
 H        -4.434542         1.089877        -2.822955
 H        -6.099112         0.573860        -2.223993
