19
Iteration:  2652
 C         1.183795        -0.202306        -0.627478
 C        -0.156452        -0.035521        -0.156012
 C        -1.356016         0.251660         0.012404
 C        -2.677323         0.106700         0.540701
 O        -2.755487         0.027271         1.945703
 C        -3.716630         1.236053         0.218414
 C        -4.534349         1.081000        -0.975575
 C        -4.293977         1.788896        -2.162162
 O        -5.446616         2.198737        -1.324379
 H         1.354031        -0.399337        -1.716856
 H         1.710538         0.763554        -0.382775
 H         1.489504        -1.080117        -0.053629
 H        -3.101551        -0.753003         0.026407
 H        -2.920103        -0.853265         2.232884
 H        -4.316445         1.172222         1.135001
 H        -3.203210         2.289221         0.194526
 H        -5.091950         0.126623        -1.091527
 H        -3.542024         2.588894        -2.054525
 H        -4.530175         1.407922        -3.155141
