19
Iteration:  3270
 C         1.363562        -0.010650        -0.459268
 C        -0.035110         0.065549        -0.044518
 C        -1.184475         0.037865         0.317765
 C        -2.687495         0.071774         0.386783
 O        -3.300619        -0.192252         1.679294
 C        -3.204618         1.284123        -0.271258
 C        -4.645036         1.266601        -0.598977
 C        -4.972776         1.378197        -2.120613
 O        -5.034317         2.451563        -1.265687
 H         1.898482         0.380802         0.373270
 H         1.730148        -1.012122        -0.699682
 H         1.380099         0.521081        -1.434865
 H        -3.035513        -0.841174        -0.169508
 H        -3.048523         0.576508         2.295852
 H        -3.017229         2.266984         0.357945
 H        -2.610283         1.283549        -1.247617
 H        -5.472074         0.797538         0.040356
 H        -4.184770         1.431823        -2.882793
 H        -5.887717         0.914197        -2.486695
