19
Iteration:  2764charge 0 multiplicity 1
 C         0.711363         0.187234        -1.103355
 C        -0.600130        -0.010397        -0.402267
 C        -1.710373        -0.153658         0.022787
 C        -2.906058        -0.073494         0.896603
 O        -2.553015         0.178791         2.287928
 C        -3.970019         1.067036         0.384693
 C        -4.171782         0.983344        -1.084429
 C        -3.596948         2.044116        -1.895248
 O        -5.092659         1.990275        -1.626286
 H         0.510615         0.297824        -2.200280
 H         1.242730         1.011591        -0.600573
 H         1.432531        -0.638742        -1.244562
 H        -3.410426        -1.036070         0.805373
 H        -3.151550         0.778628         2.810622
 H        -4.974642         1.116146         0.878611
 H        -3.597004         2.179681         0.420531
 H        -4.345492        -0.033710        -1.586508
 H        -3.005808         2.821380        -1.473317
 H        -3.426949         1.842132        -2.940065
