19
Iteration:  4993charge 0 multiplicity 1
 C         0.495262         0.101973        -1.176617
 C        -0.835998         0.114624        -0.493650
 C        -1.869957        -0.002162         0.192777
 C        -3.145975         0.206951         0.865875
 O        -2.592190         0.028052         2.269781
 C        -3.893576         1.536794         0.494387
 C        -4.548697         1.525622        -0.823826
 C        -3.996349         0.721034        -1.921303
 O        -3.815796         2.157292        -1.930029
 H         1.247491         0.622756        -0.448721
 H         0.914395        -0.903751        -1.143728
 H         0.529531         0.434182        -2.272187
 H        -3.577815        -0.855475         0.837209
 H        -2.173887         0.768464         2.623602
 H        -4.483319         1.613651         1.410394
 H        -3.013830         2.345215         0.475696
 H        -5.630338         1.660321        -0.820583
 H        -3.073799         0.050173        -1.717552
 H        -4.624777         0.430584        -2.764365
