19
Iteration:  4698charge 0 multiplicity 1
 C         1.025394        -0.514116        -0.661823
 C        -0.413728        -0.337904        -0.173932
 C        -1.505239         0.025439         0.130673
 C        -2.777265         0.203935         0.735603
 O        -2.612313         0.604620         2.112154
 C        -3.716959         1.307740         0.181965
 C        -4.405468         1.020874        -1.112266
 C        -4.156510         1.798473        -2.389459
 O        -5.310260         2.165829        -1.379340
 H         1.435356         0.529260        -0.779226
 H         1.498404        -1.110753         0.058674
 H         0.913134        -0.996801        -1.620426
 H        -3.276921        -0.770040         0.745352
 H        -2.036201        -0.016495         2.546435
 H        -4.442568         1.450831         1.022627
 H        -3.197891         2.324374         0.062079
 H        -4.733714        -0.003339        -1.266781
 H        -3.327695         2.506388        -2.387021
 H        -4.667961         1.311068        -3.354377
