19
Iteration:  4808charge 0 multiplicity 1
 C         0.955483        -0.308693        -0.697816
 C        -0.353268        -0.243573        -0.295179
 C        -1.532365        -0.028775         0.083359
 C        -2.893734         0.273740         0.721761
 O        -2.849467         0.190824         2.102197
 C        -3.512880         1.664098         0.364945
 C        -4.453113         1.339008        -0.757924
 C        -4.266938         1.209342        -2.283359
 O        -5.013693         2.276946        -1.689945
 H         1.564259         0.635347        -0.530937
 H         1.590768        -1.039613        -0.313359
 H         0.970150        -0.584634        -1.766232
 H        -3.574169        -0.564413         0.536994
 H        -1.863795         0.060771         2.119130
 H        -4.083999         2.052839         1.170096
 H        -2.794072         2.335944        -0.108096
 H        -5.228616         0.615644        -0.449129
 H        -3.242236         1.408390        -2.770778
 H        -4.841937         0.333896        -2.836615
