19
Iteration:   725
 C         1.500895        -0.100428        -0.048517
 C        -0.042658        -0.173853         0.116440
 C        -1.214771        -0.152681        -0.199874
 C        -2.653108         0.214328         0.009651
 O        -2.969342        -0.322215         1.317160
 C        -3.145618         1.629890        -0.120476
 C        -4.728982         1.593768        -0.418828
 C        -5.140149         1.228409        -1.766801
 O        -5.340748         2.511327        -1.306066
 H         1.600617         0.768226        -0.724926
 H         2.127928        -0.036264         0.886047
 H         1.813654        -1.105366        -0.461225
 H        -3.433639        -0.327338        -0.578815
 H        -2.500666        -1.205525         1.333367
 H        -2.880387         2.189712         0.850713
 H        -2.701294         2.280032        -0.902281
 H        -5.517289         1.436578         0.380754
 H        -4.420023         1.135572        -2.626520
 H        -6.034293         0.558424        -1.931428
