19
Iteration:   327
 C         1.490028        -0.180129         0.036859
 C         0.081777        -0.075731         0.129288
 C        -1.136124         0.040105         0.097949
 C        -2.550696         0.158073        -0.243979
 O        -3.272866        -0.288997         1.024568
 C        -3.023920         1.671981        -0.414823
 C        -4.539123         1.565157        -0.380016
 C        -5.525216         1.038805        -1.385265
 O        -5.212277         2.533449        -1.227493
 H         1.680118        -0.808784        -0.851687
 H         2.105141         0.720954        -0.107188
 H         1.850859        -0.638788         0.992275
 H        -2.798213        -0.482009        -1.056053
 H        -2.634582        -0.931330         1.465528
 H        -2.539113         2.203664         0.407704
 H        -2.764561         2.085789        -1.449715
 H        -5.027998         1.606039         0.590426
 H        -5.108721         0.698441        -2.383185
 H        -6.564494         0.613913        -1.183719
