19
Iteration:   153charge 0 multiplicity 1
 C         1.289193        -0.044417         0.439593
 C        -0.023299         0.162224        -0.037158
 C        -1.198277        -0.102266        -0.299157
 C        -2.668009         0.027494        -0.422953
 O        -3.235069        -0.459269         0.846830
 C        -2.908848         1.533504        -0.615184
 C        -4.390512         1.759642        -0.219349
 C        -5.334987         1.028991        -1.064675
 O        -5.136120         2.555728        -1.079828
 H         1.443526        -1.115375         0.601915
 H         2.018448         0.366018        -0.268101
 H         1.460725         0.422102         1.428407
 H        -3.205928        -0.471518        -1.251962
 H        -4.175513        -0.515893         0.749030
 H        -2.074326         2.060708        -0.140649
 H        -2.768252         1.830755        -1.661509
 H        -4.625228         1.824733         0.790962
 H        -4.963672         0.479214        -1.972933
 H        -6.345219         0.785690        -0.671608
