19
Iteration:  4362
 C         0.474656        -0.273282        -1.261274
 C        -0.687547         0.025470        -0.483473
 C        -1.684248         0.019114         0.227449
 C        -2.891871         0.141324         1.038229
 O        -2.670547         0.731890         2.491562
 C        -3.857145         1.194427         0.388581
 C        -4.331333         0.889629        -1.056672
 C        -3.540124         1.477986        -2.143560
 O        -4.824923         2.031297        -1.745436
 H         0.568912         0.336069        -2.194087
 H         1.401245        -0.077821        -0.774545
 H         0.533799        -1.331886        -1.555324
 H        -3.311743        -0.837807         1.357020
 H        -1.967043         1.324273         2.619470
 H        -4.783900         1.210757         1.024826
 H        -3.302996         2.108066         0.321869
 H        -4.911914        -0.107381        -1.007104
 H        -2.611351         2.063438        -1.891236
 H        -3.464231         1.006849        -3.067220
