19
Iteration:  2930charge 0 multiplicity 1
 C         0.116946         0.450008        -1.489902
 C        -1.000371         0.170720        -0.583047
 C        -1.701244        -0.053661         0.371069
 C        -2.993721        -0.101774         1.098637
 O        -2.719788         0.171027         2.435624
 C        -3.850994         0.936153         0.442118
 C        -3.930940         0.942265        -1.007034
 C        -3.215364         1.777992        -1.998029
 O        -4.599058         1.970768        -1.742494
 H        -0.145595         1.417010        -2.011462
 H         0.933379         0.688694        -0.803212
 H         0.216159        -0.276175        -2.335994
 H        -3.366369        -1.177183         0.957408
 H        -3.536106         0.679371         2.723666
 H        -4.873508         0.794716         0.661180
 H        -3.555962         1.965573         0.782738
 H        -4.168835        -0.066442        -1.409821
 H        -2.598632         2.540727        -1.541247
 H        -2.865341         1.281729        -2.832285
