19
Iteration:  3732charge 0 multiplicity 1
 C         1.494672        -0.062958        -0.212996
 C         0.022703        -0.144265        -0.081075
 C        -1.202559        -0.081988         0.173485
 C        -2.670513         0.082520         0.340547
 O        -3.275852         0.180863         1.633467
 C        -3.098258         1.433914        -0.383235
 C        -4.576006         1.487173        -0.540073
 C        -5.436736         1.033654        -1.730798
 O        -4.954249         2.401923        -1.628115
 H         1.908866        -1.050097        -0.380519
 H         1.709356         0.688114        -1.080623
 H         1.855274         0.339800         0.759360
 H        -3.165643        -0.791533        -0.166467
 H        -3.044864        -0.597085         2.183813
 H        -2.679440         2.224445         0.158913
 H        -2.638949         1.564606        -1.395311
 H        -5.147739         1.611390         0.352763
 H        -5.011432         0.279753        -2.475646
 H        -6.496394         1.031085        -1.571079
