19
Iteration:   129
 C         1.458043         0.015106         0.396089
 C         0.060186        -0.058714         0.046512
 C        -1.110303        -0.186774        -0.234807
 C        -2.553063         0.054186        -0.402291
 O        -3.327661        -0.365522         0.786640
 C        -2.974628         1.495833        -0.565596
 C        -4.478570         1.666078        -0.194646
 C        -5.525270         1.214823        -1.095002
 O        -5.184944         2.584442        -1.147204
 H         1.816752        -0.987479         0.694482
 H         2.059390         0.417995        -0.456691
 H         1.633217         0.653518         1.286149
 H        -3.016102        -0.495691        -1.277991
 H        -3.313406        -1.350192         0.827871
 H        -2.195750         2.023224         0.032568
 H        -2.770841         1.920747        -1.614610
 H        -4.766487         1.945834         0.843337
 H        -5.185403         0.602703        -2.023566
 H        -6.576338         0.953701        -0.698606
