19
Iteration:  1087charge 0 multiplicity 1
 C         1.543777        -0.137265        -0.257638
 C         0.063541        -0.175898         0.003857
 C        -1.094286         0.010838         0.286456
 C        -2.612536         0.170309         0.165585
 O        -3.338509        -0.252936         1.326397
 C        -3.096122         1.544985        -0.280378
 C        -4.572414         1.547857        -0.501421
 C        -5.310600         1.113888        -1.632782
 O        -5.267085         2.536721        -1.482101
 H         2.133146        -0.668930         0.427905
 H         1.879634        -0.591844        -1.143921
 H         1.823848         0.885307        -0.269705
 H        -2.942175        -0.540690        -0.492670
 H        -2.760883         0.044561         2.063350
 H        -2.709569         2.197525         0.474675
 H        -2.492785         1.653506        -1.140420
 H        -5.263039         1.787387         0.327217
 H        -4.708472         0.723636        -2.456641
 H        -6.334439         0.663597        -1.443693
