19
Iteration:  1820charge 0 multiplicity 1
 C         0.888370        -0.249450        -0.726258
 C        -0.490332         0.128127        -0.405803
 C        -1.693999         0.210293        -0.104853
 C        -2.832078         0.139975         0.816854
 O        -2.342061         0.129831         2.130015
 C        -3.981008         1.237860         0.436054
 C        -4.620768         1.085436        -0.875284
 C        -3.950299         1.525563        -2.138037
 O        -5.012122         2.214296        -1.755343
 H         1.602115         0.448077        -0.309240
 H         1.111243        -1.035426        -0.018990
 H         1.110306        -0.582442        -1.712252
 H        -3.125090        -0.856692         0.638154
 H        -2.235646         0.977791         2.593785
 H        -4.744215         1.047025         1.283840
 H        -3.593663         2.302204         0.671550
 H        -5.285829         0.173929        -0.929266
 H        -2.867270         2.004077        -2.077114
 H        -4.127483         0.680874        -2.906654
