19
Iteration:  3775charge 0 multiplicity 1
 C         1.268804        -0.164937        -0.430192
 C        -0.011294         0.076620         0.157163
 C        -1.241312        -0.029486         0.304502
 C        -2.676939         0.081075         0.355912
 O        -3.166420         0.183990         1.837101
 C        -3.053082         1.293660        -0.485142
 C        -4.636771         1.412081        -0.631504
 C        -5.136133         1.088234        -1.962267
 O        -5.114422         2.457564        -1.492830
 H         1.367138        -1.145944        -0.812370
 H         1.540818         0.550571        -1.252038
 H         2.124980        -0.083489         0.247374
 H        -3.205152        -0.806637        -0.129852
 H        -2.678289        -0.497789         2.401785
 H        -2.554432         2.206727        -0.240067
 H        -2.553507         1.088192        -1.492441
 H        -5.227060         1.277946         0.252483
 H        -4.359101         0.998606        -2.813583
 H        -6.122239         0.669848        -2.088850
