19
Iteration:  3473
 C         1.519826        -0.265632         0.574737
 C         0.088651        -0.173134         0.214567
 C        -0.986675         0.086589        -0.232958
 C        -2.502933         0.248084        -0.247676
 O        -3.041360        -0.122278         1.055816
 C        -3.035358         1.553439        -0.836816
 C        -4.479377         1.851820        -0.523706
 C        -5.603038         0.979570        -0.953879
 O        -5.512133         2.279022        -1.501583
 H         1.727925        -0.916040         1.532258
 H         2.160606        -0.709752        -0.194651
 H         1.868567         0.724956         0.938103
 H        -2.970721        -0.583525        -0.831941
 H        -4.030701        -0.019001         0.808787
 H        -2.520018         2.479188        -0.481575
 H        -2.748541         1.481407        -1.898841
 H        -4.691470         2.442208         0.345932
 H        -5.504700         0.040792        -1.516119
 H        -6.442838         0.775426        -0.260985
