19
Iteration:  1907
 C         1.122360        -0.098754        -0.768956
 C        -0.241309        -0.046603        -0.276613
 C        -1.366384         0.145698         0.174036
 C        -2.745969         0.180959         0.676749
 O        -2.758015         0.067108         2.144036
 C        -3.664596         1.459334         0.385613
 C        -4.662222         1.200020        -0.820088
 C        -4.355558         1.290013        -2.297737
 O        -5.182617         2.295831        -1.718229
 H         1.821797         0.624693        -0.318893
 H         1.540456        -1.105699        -0.758526
 H         1.162237         0.226307        -1.806593
 H        -3.286732        -0.822940         0.403019
 H        -2.805647        -0.898428         2.415320
 H        -4.173291         1.734507         1.321913
 H        -2.891087         2.253463         0.275168
 H        -5.449955         0.451036        -0.514121
 H        -3.259848         1.391077        -2.564630
 H        -4.637490         0.376860        -2.868612
