19
Iteration:  4525charge 0 multiplicity 1
 C         0.387384        -0.489973        -1.199761
 C        -0.609525        -0.289549        -0.320962
 C        -1.510676         0.047146         0.444720
 C        -2.754254         0.341781         1.039295
 O        -2.734601         0.778072         2.377397
 C        -3.708997         1.194266         0.283310
 C        -3.878613         1.062369        -1.229768
 C        -3.858492         2.164679        -2.134517
 O        -5.122932         1.515370        -1.718283
 H         0.578565         0.563148        -1.702071
 H         1.287879        -0.781993        -0.638019
 H         0.059511        -1.285374        -1.948045
 H        -3.346685        -0.617624         1.029163
 H        -2.444193         0.013335         2.956741
 H        -4.738171         0.982911         0.767127
 H        -3.463837         2.263468         0.368318
 H        -3.694325         0.109988        -1.757833
 H        -3.641210         3.124872        -1.696126
 H        -3.663839         2.152311        -3.226320
