19
Iteration:  1675charge 0 multiplicity 1
 C         0.278773         0.079130        -1.556787
 C        -0.757312        -0.105145        -0.495488
 C        -1.711033         0.038612         0.345354
 C        -2.930263         0.169989         1.052777
 O        -2.856360         0.347441         2.483769
 C        -3.728496         1.281755         0.419764
 C        -3.885876         0.931462        -0.999001
 C        -3.407795         1.860509        -2.020730
 O        -4.842737         1.748979        -1.712283
 H         0.156671         0.992456        -2.091988
 H         1.263022         0.142831        -1.119660
 H         0.181355        -0.760794        -2.226629
 H        -3.393594        -0.768993         0.858395
 H        -2.855095        -0.544719         2.900701
 H        -4.763801         1.353937         0.933549
 H        -3.316756         2.240039         0.651355
 H        -4.178258        -0.105928        -1.229234
 H        -3.102899         2.825134        -1.653896
 H        -3.083426         1.590258        -3.027715
