19
Iteration:  2327charge 0 multiplicity 1
 C         1.423577        -0.139510         0.651523
 C         0.091057         0.033321         0.105501
 C        -1.118639         0.148189        -0.218111
 C        -2.548763         0.045846        -0.425322
 O        -3.222206        -0.143639         0.884106
 C        -2.938043         1.403136        -0.967221
 C        -4.363854         1.776243        -0.447650
 C        -5.563045         1.053680        -0.727108
 O        -5.445225         2.297322        -1.389813
 H         1.781147        -1.131252         1.159878
 H         2.296634         0.039210        -0.016012
 H         1.470468         0.546086         1.549604
 H        -2.744409        -0.796719        -1.070625
 H        -2.403561        -0.349611         1.355234
 H        -2.240361         2.065136        -0.578494
 H        -3.000653         1.478650        -2.023882
 H        -4.594037         2.233509         0.532545
 H        -5.472434         0.239881        -1.429794
 H        -6.212003         0.960695         0.183943
