19
Iteration:  3343
 C         1.541854         0.072933        -0.146533
 C         0.015232        -0.093729         0.213960
 C        -1.201781        -0.105410         0.112890
 C        -2.668180         0.071999         0.147328
 O        -3.211653        -0.247430         1.475098
 C        -3.137204         1.384371        -0.454718
 C        -4.585637         1.549741        -0.537969
 C        -5.421531         1.141140        -1.705619
 O        -5.044601         2.548695        -1.488524
 H         2.200434         0.112614         0.783879
 H         1.844735        -0.750194        -0.780926
 H         1.553723         0.888121        -0.854335
 H        -3.084678        -0.809729        -0.334656
 H        -2.597003         0.074124         2.148937
 H        -2.713686         2.109418         0.141308
 H        -2.775014         1.532553        -1.446405
 H        -5.236513         1.526855         0.344379
 H        -5.075204         0.779440        -2.647561
 H        -6.525203         1.052922        -1.427799
