19
Iteration:  4164
 C         0.882798         0.034776        -0.988748
 C        -0.374299        -0.082598        -0.292964
 C        -1.544872         0.004462         0.178437
 C        -2.864996         0.213305         0.799655
 O        -2.950986         0.408843         2.197879
 C        -3.535015         1.495881         0.211662
 C        -4.542066         1.181614        -0.760028
 C        -4.335034         0.825246        -2.130891
 O        -4.635588         2.215000        -1.693084
 H         0.668649         0.101146        -2.070814
 H         1.384777         0.903222        -0.699329
 H         1.536948        -0.776832        -0.905460
 H        -3.503052        -0.614835         0.420708
 H        -2.463939        -0.342940         2.688463
 H        -3.909812         2.101834         1.068824
 H        -2.659930         2.039737        -0.121555
 H        -5.522015         0.956121        -0.170871
 H        -3.320182         0.771047        -2.347474
 H        -5.046980         0.408309        -2.866365
