19
Iteration:  1481
 C         0.513361        -0.056502        -1.174807
 C        -0.679751         0.069078        -0.450288
 C        -1.866627        -0.050942         0.000218
 C        -2.957110         0.108487         0.953653
 O        -2.396043         0.513942         2.193230
 C        -4.279079         0.843836         0.498848
 C        -4.281416         0.925709        -1.029307
 C        -3.395493         1.764621        -1.835924
 O        -4.766935         2.141763        -1.683449
 H         0.304277        -0.312060        -2.288743
 H         1.192093         0.852467        -1.017121
 H         1.167782        -0.850452        -0.710488
 H        -3.198453        -0.996796         1.163174
 H        -1.653889         1.171608         2.242766
 H        -5.256112         0.448640         0.628553
 H        -4.111811         1.782112         1.038380
 H        -4.716282         0.032244        -1.480282
 H        -2.689914         2.258789        -1.183946
 H        -3.058596         1.469555        -2.823151
