19
Iteration:  3130
 C         1.146051        -0.199176        -0.454439
 C        -0.210101         0.083251        -0.151328
 C        -1.432062         0.180441        -0.000029
 C        -2.830187         0.116112         0.564861
 O        -2.525704        -0.157155         1.953707
 C        -3.688130         1.400524         0.204162
 C        -4.616459         1.162772        -0.896873
 C        -4.369836         1.536785        -2.296939
 O        -5.356325         2.279565        -1.449936
 H         1.853527         0.520325        -0.045292
 H         1.566109        -1.197237        -0.065241
 H         1.439673        -0.354373        -1.509987
 H        -3.303995        -0.816858         0.265014
 H        -2.399591         0.709542         2.364068
 H        -4.300563         1.472900         1.029510
 H        -3.083057         2.287107         0.108475
 H        -5.309399         0.302712        -0.796913
 H        -3.666535         2.330543        -2.531785
 H        -4.668676         1.006303        -3.236974
