19
Iteration:  2686
 C         1.075673        -0.134601        -0.666759
 C        -0.304384         0.136864        -0.266394
 C        -1.551449         0.040486        -0.061606
 C        -2.844367         0.039309         0.715587
 O        -2.516840         0.045142         2.114137
 C        -3.803479         1.172351         0.295091
 C        -4.446512         1.073138        -1.091762
 C        -4.126327         1.934882        -2.222003
 O        -5.383615         2.129642        -1.384459
 H         1.184127        -0.237029        -1.779769
 H         1.821146         0.563795        -0.224519
 H         1.391411        -1.010653        -0.079846
 H        -3.402588        -0.837371         0.401401
 H        -1.989818        -0.745935         2.259690
 H        -4.781219         1.216374         0.854747
 H        -3.405028         2.288552         0.350441
 H        -4.804387         0.032145        -1.360257
 H        -3.381368         2.721267        -1.993398
 H        -4.210869         1.656311        -3.248801
