19
Iteration:   381
 C         1.508654        -0.099638         0.014597
 C         0.046544        -0.156799        -0.189413
 C        -1.160536        -0.014462        -0.038352
 C        -2.664735         0.136516         0.053556
 O        -3.125519        -0.303840         1.387878
 C        -3.122700         1.544308        -0.313924
 C        -4.597291         1.665825        -0.374093
 C        -5.229734         1.150268        -1.610397
 O        -5.307164         2.528408        -1.363674
 H         2.108981        -0.307920        -0.891391
 H         1.681204         0.953849         0.291894
 H         1.881480        -0.766354         0.837095
 H        -3.081008        -0.602397        -0.675322
 H        -3.861101        -0.965066         1.232630
 H        -2.540550         2.043168         0.470783
 H        -2.578232         1.784026        -1.300323
 H        -5.253778         1.621492         0.540198
 H        -4.586536         0.979341        -2.529656
 H        -6.207828         0.550949        -1.605341
