19
Iteration:   433charge 0 multiplicity 1
 C         1.310174        -0.096478        -0.196248
 C        -0.049031         0.184745        -0.005142
 C        -1.248218         0.028130        -0.138174
 C        -2.686485        -0.044226         0.176557
 O        -2.884232        -0.330274         1.592814
 C        -3.239568         1.402509        -0.122075
 C        -4.719289         1.469199        -0.530750
 C        -5.197510         1.238784        -1.842630
 O        -5.016557         2.602051        -1.385722
 H         1.498502        -0.284700        -1.251209
 H         2.010969         0.630016         0.216318
 H         1.458541        -1.107612         0.180998
 H        -3.011880        -0.847633        -0.579621
 H        -3.872476        -0.162324         1.705278
 H        -2.838372         1.985691         0.684767
 H        -2.527175         1.604958        -0.927920
 H        -5.530765         1.353099         0.357955
 H        -4.536101         0.715950        -2.521980
 H        -6.261199         1.170911        -2.008689
