19
Iteration:  4286charge 0 multiplicity 1
 C         0.713894        -0.145625        -1.155372
 C        -0.587405         0.056779        -0.449139
 C        -1.663934        -0.004530         0.160377
 C        -2.959749         0.245251         0.908073
 O        -2.614935         0.517042         2.391336
 C        -3.979428         1.309919         0.505128
 C        -4.616321         1.127803        -0.919689
 C        -3.769730         1.015634        -2.061037
 O        -4.581204         2.192507        -1.872575
 H         0.714250         0.288158        -2.119723
 H         1.503182         0.358318        -0.687111
 H         1.039070        -1.166073        -1.330687
 H        -3.504490        -0.732904         0.859014
 H        -1.585281         0.540670         2.421172
 H        -4.753830         1.189149         1.315924
 H        -3.567857         2.284826         0.332259
 H        -5.593893         0.481346        -0.893232
 H        -2.668787         1.264778        -1.877232
 H        -4.071203         0.481878        -2.902980
