19
Iteration:  2757charge 0 multiplicity 1
 C         0.748492         0.185948        -1.052396
 C        -0.531739        -0.045737        -0.435576
 C        -1.739409        -0.175599        -0.048209
 C        -2.902942        -0.015073         0.896953
 O        -2.573140         0.165192         2.263645
 C        -3.919349         1.131713         0.379265
 C        -4.211658         0.983418        -1.110283
 C        -3.667074         2.053649        -1.925227
 O        -5.094745         1.954681        -1.591115
 H         0.545572         0.363715        -2.096702
 H         1.309510         0.926380        -0.484044
 H         1.425791        -0.678007        -0.856041
 H        -3.488968        -0.949173         0.777396
 H        -3.041890         0.875673         2.709129
 H        -4.857958         0.879853         1.002420
 H        -3.543769         2.117400         0.791596
 H        -4.520205         0.001370        -1.402525
 H        -3.003842         2.744856        -1.370504
 H        -3.439185         1.954233        -3.012195
