19
Iteration:   611
 C         1.339599        -0.098643        -0.607784
 C         0.056874        -0.058156         0.124285
 C        -1.177825         0.024421         0.286924
 C        -2.678511         0.029084         0.386719
 O        -3.047107        -0.343989         1.792295
 C        -3.270217         1.432417        -0.118472
 C        -4.711922         1.347268        -0.720893
 C        -5.013966         1.433454        -2.201203
 O        -5.234392         2.642441        -1.269718
 H         1.163099         0.546391        -1.454423
 H         2.110203         0.349359        -0.022858
 H         1.684120        -1.077665        -0.879871
 H        -3.062497        -0.654864        -0.376737
 H        -2.357687        -1.043385         1.949540
 H        -3.225635         2.118439         0.648968
 H        -2.767721         1.865998        -0.954523
 H        -5.588323         0.926105        -0.207622
 H        -4.110220         1.449463        -2.838252
 H        -5.868256         1.022791        -2.728709
