19
Iteration:  2657
 C         1.124550        -0.204205        -0.626087
 C        -0.164608        -0.005534        -0.160214
 C        -1.366968         0.234608         0.014135
 C        -2.706605         0.062181         0.539062
 O        -2.708699         0.066671         1.928521
 C        -3.710740         1.195198         0.260701
 C        -4.528108         1.071818        -0.948249
 C        -4.300131         1.850278        -2.169343
 O        -5.410635         2.177139        -1.351441
 H         1.197083        -0.235369        -1.715275
 H         1.695799         0.676465        -0.390834
 H         1.446008        -1.030973         0.053320
 H        -3.121936        -0.790631        -0.074024
 H        -2.889509        -0.855643         2.282860
 H        -4.433698         1.225854         1.149116
 H        -3.211733         2.197655         0.143352
 H        -5.021876         0.104163        -1.133177
 H        -3.521894         2.592672        -2.035585
 H        -4.392076         1.359740        -3.154605
