19
Iteration:   546
 C         1.302586         0.003778        -0.579930
 C        -0.131526         0.090650        -0.141986
 C        -1.295505        -0.178980         0.145453
 C        -2.732438         0.072398         0.326008
 O        -3.337462        -0.067492         1.699225
 C        -3.127409         1.429764        -0.127530
 C        -4.541903         1.211215        -0.574145
 C        -4.702531         1.395685        -2.057526
 O        -5.182717         2.451469        -1.115778
 H         1.454726         0.364975        -1.587528
 H         1.893361         0.675676         0.011917
 H         1.746265        -0.970571        -0.627043
 H        -3.264678        -0.742367        -0.183814
 H        -3.015013        -0.949187         2.010154
 H        -2.856553         2.115246         0.603209
 H        -2.435750         1.605142        -0.931154
 H        -5.310105         0.649563         0.049279
 H        -3.787443         1.665502        -2.636495
 H        -5.366930         0.747933        -2.641776
