19
Iteration:  3327
 C         1.368582         0.030119        -0.225545
 C         0.018629         0.011388         0.105201
 C        -1.135353        -0.128926         0.265140
 C        -2.611534        -0.011764         0.202599
 O        -3.189834        -0.246452         1.498085
 C        -3.102826         1.400540        -0.409264
 C        -4.614384         1.449397        -0.528832
 C        -5.441563         1.213195        -1.836319
 O        -5.023133         2.556367        -1.437687
 H         2.005264         0.239119         0.626800
 H         1.746380        -0.966065        -0.653021
 H         1.709217         0.928581        -0.805813
 H        -2.943140        -0.728143        -0.594863
 H        -3.107862         0.550030         1.990134
 H        -2.847955         2.390814         0.193614
 H        -2.462416         1.500343        -1.340607
 H        -5.211751         1.537206         0.411218
 H        -4.772017         0.680474        -2.587863
 H        -6.481970         0.926831        -1.813053
