19
Iteration:   848
 C         1.504184        -0.002620         0.256160
 C         0.021310        -0.212200         0.319346
 C        -1.097813        -0.057623        -0.114412
 C        -2.520594         0.060341        -0.292904
 O        -3.088712        -0.218595         1.094973
 C        -3.011668         1.393118        -0.837701
 C        -4.576520         1.601208        -0.338615
 C        -5.727141         1.261150        -1.360657
 O        -5.237061         2.566840        -1.143288
 H         1.674451         1.089042         0.502376
 H         2.078251        -0.589740         1.025926
 H         1.880407        -0.248604        -0.773647
 H        -2.944361        -0.845981        -0.878340
 H        -2.493222        -0.934616         1.454127
 H        -2.372925         2.234272        -0.419144
 H        -2.800214         1.307826        -1.934063
 H        -4.630573         1.613957         0.725821
 H        -5.603364         0.819870        -2.357097
 H        -6.677336         1.058289        -0.887722
