19
Iteration:  1011charge 0 multiplicity 1
 C         1.558067        -0.166739         0.116172
 C         0.077746         0.050584         0.040957
 C        -1.112844         0.125492         0.062172
 C        -2.542775         0.044952        -0.062463
 O        -3.376170        -0.322041         1.092176
 C        -3.039115         1.361994        -0.681260
 C        -4.503036         1.637743        -0.359565
 C        -5.553140         1.201702        -1.310303
 O        -5.187013         2.526456        -1.316497
 H         1.809227        -0.068955         1.183766
 H         1.869977        -1.166159        -0.188611
 H         2.200025         0.524464        -0.440959
 H        -2.754262        -0.741986        -0.789310
 H        -2.944638         0.054921         1.853823
 H        -2.503471         2.175878        -0.242449
 H        -2.676486         1.198028        -1.661584
 H        -4.747672         1.744166         0.758731
 H        -5.213089         0.611295        -2.227898
 H        -6.653124         0.925306        -1.072743
