19
Iteration:  1265charge 0 multiplicity 1
 C         1.091892        -0.219013        -0.717427
 C        -0.217067         0.073308        -0.103817
 C        -1.378735         0.027624         0.107506
 C        -2.748625         0.043290         0.597018
 O        -2.856035         0.014277         2.019517
 C        -3.403917         1.385882         0.113364
 C        -4.635660         1.302210        -0.728323
 C        -4.488111         1.470885        -2.211534
 O        -5.173743         2.364048        -1.471460
 H         1.150196        -1.268659        -0.938075
 H         1.088029         0.384964        -1.598533
 H         1.923695         0.145700        -0.169450
 H        -3.420184        -0.712959         0.011947
 H        -2.822992        -0.937587         2.070377
 H        -3.544791         2.064786         0.968434
 H        -2.661961         1.887708        -0.608889
 H        -5.370442         0.586263        -0.374214
 H        -3.371603         1.592657        -2.648176
 H        -5.124703         0.797649        -2.876658
