19
Iteration:  1604charge 0 multiplicity 1
 C         0.065151        -0.035310        -1.622356
 C        -0.828374         0.084592        -0.412700
 C        -1.692188         0.175183         0.484327
 C        -2.940860         0.097589         1.182195
 O        -2.694007         0.188083         2.568006
 C        -3.907472         1.121369         0.399834
 C        -3.843104         0.968281        -1.049699
 C        -3.347681         1.927632        -2.059712
 O        -4.721927         1.820276        -1.885132
 H        -0.601828         0.485191        -2.409714
 H         1.116643         0.425761        -1.635468
 H         0.021233        -1.131417        -1.874999
 H        -3.488680        -0.870263         1.037262
 H        -2.231859         0.994121         2.853428
 H        -4.919817         0.976465         0.672888
 H        -3.794748         2.180488         0.728568
 H        -3.879045        -0.083905        -1.358855
 H        -2.743968         2.780101        -1.665602
 H        -2.864729         1.616188        -3.043280
