19
Iteration:  1211
 C         1.295199        -0.116334        -0.346307
 C        -0.173128        -0.268143        -0.372431
 C        -1.351653         0.083011        -0.087703
 C        -2.718906         0.063206         0.448906
 O        -2.824313        -0.067078         1.916285
 C        -3.474231         1.457827         0.174471
 C        -4.729409         1.372541        -0.665019
 C        -4.838141         1.231087        -2.138041
 O        -5.052631         2.578929        -1.505046
 H         1.704646        -1.099384        -0.022361
 H         1.773498         0.218792        -1.293808
 H         1.594240         0.517961         0.506516
 H        -3.295716        -0.707861        -0.085495
 H        -1.912739        -0.352499         2.118979
 H        -3.784981         1.990544         1.095049
 H        -2.842444         2.341586        -0.177188
 H        -5.617143         0.993656        -0.139314
 H        -3.962748         0.985595        -2.932621
 H        -5.734410         0.642636        -2.549900
