19
Iteration:  4503charge 0 multiplicity 1
 C         0.414403        -0.467212        -1.316329
 C        -0.703127        -0.194122        -0.369813
 C        -1.506100         0.140855         0.458965
 C        -2.998221         0.177584         1.079697
 O        -2.694394         0.812795         2.472815
 C        -3.710464         1.230821         0.264483
 C        -3.818992         0.952461        -1.255799
 C        -3.840489         2.130409        -2.053484
 O        -5.027454         1.530450        -1.765078
 H         0.637061         0.512820        -1.963646
 H         1.313570        -0.767543        -0.769172
 H         0.018733        -1.361497        -1.907621
 H        -3.659523        -0.664649         1.298295
 H        -2.153362         0.140632         2.886831
 H        -4.773067         1.362115         0.701999
 H        -3.100805         2.130590         0.404738
 H        -3.553816        -0.054993        -1.620317
 H        -3.678684         3.115453        -1.661301
 H        -3.531646         2.035616        -3.099788
