19
Iteration:  2402
 C         1.420301         0.190123         0.294883
 C         0.096888        -0.116894        -0.070293
 C        -1.146998        -0.036007         0.044288
 C        -2.547640        -0.098418        -0.151721
 O        -3.311363        -0.344431         1.122826
 C        -3.008844         1.365643        -0.633708
 C        -4.466969         1.702783        -0.503187
 C        -5.575362         1.086293        -1.060078
 O        -5.154239         2.540206        -1.518745
 H         2.243395        -0.598165         0.154948
 H         1.919494         0.877781        -0.451768
 H         1.513390         0.719351         1.270505
 H        -2.993896        -0.997564        -0.777003
 H        -2.853085         0.152023         1.853950
 H        -2.387446         1.989138         0.007391
 H        -2.534173         1.453060        -1.653379
 H        -4.715536         2.224585         0.450965
 H        -5.494304         0.352936        -1.803272
 H        -6.507484         1.153814        -0.519807
