19
Iteration:   317
 C         1.449841        -0.248879         0.057900
 C         0.048939         0.038293         0.165834
 C        -1.146464         0.154863         0.060486
 C        -2.574084         0.135352        -0.149162
 O        -3.249935        -0.413208         0.960821
 C        -3.027571         1.581701        -0.562763
 C        -4.543037         1.658994        -0.342437
 C        -5.427796         1.081807        -1.348408
 O        -5.253741         2.509793        -1.220123
 H         1.638501        -0.969041        -0.758919
 H         1.981365         0.685842        -0.148407
 H         1.879958        -0.723761         0.969604
 H        -2.702321        -0.541339        -0.970495
 H        -2.492862        -0.628837         1.556564
 H        -2.737071         2.244078         0.262700
 H        -2.555120         2.058018        -1.449667
 H        -4.776219         1.646045         0.670410
 H        -5.122754         0.713159        -2.352952
 H        -6.419486         0.739875        -0.953329
