19
Iteration:  3908
 C         1.345934        -0.383975        -0.310663
 C        -0.093079        -0.108120        -0.034057
 C        -1.342536        -0.013172         0.039719
 C        -2.699061         0.270355         0.540187
 O        -2.741418         0.294240         1.998388
 C        -3.378309         1.527666        -0.117820
 C        -4.619761         1.146104        -0.969371
 C        -4.900073         1.290327        -2.360223
 O        -5.379723         2.273818        -1.314810
 H         1.364109        -1.203459        -0.971060
 H         1.859940         0.530796        -0.682758
 H         1.696516        -0.647261         0.629862
 H        -3.215793        -0.595229         0.081648
 H        -2.012768         0.926948         2.243639
 H        -3.866020         2.098246         0.680552
 H        -2.477894         2.041033        -0.682707
 H        -5.204967         0.354132        -0.454357
 H        -4.274404         1.715078        -3.141001
 H        -5.685471         0.538769        -2.812608
