19
Iteration:  4819
 C         0.975617        -0.308910        -0.722026
 C        -0.472986        -0.190967        -0.348741
 C        -1.557284         0.005625         0.161756
 C        -2.857508         0.229387         0.688650
 O        -2.803029         0.147387         2.150265
 C        -3.491320         1.641166         0.294494
 C        -4.542984         1.390852        -0.769953
 C        -4.215916         1.139724        -2.183154
 O        -4.993223         2.294140        -1.766789
 H         1.482951         0.673421        -0.494240
 H         1.420541        -1.097201        -0.165015
 H         1.134033        -0.453963        -1.797569
 H        -3.472127        -0.500918         0.172808
 H        -1.875596        -0.048130         2.546115
 H        -3.807881         2.061303         1.208407
 H        -2.718905         2.336309        -0.045666
 H        -5.398498         0.808262        -0.385772
 H        -3.233597         1.497956        -2.599850
 H        -4.838685         0.373082        -2.755482
