19
Iteration:  2563
 C         1.281789        -0.103114        -0.446597
 C        -0.057289         0.094256        -0.015234
 C        -1.315255        -0.012542         0.027707
 C        -2.674187         0.205655         0.356946
 O        -3.000579        -0.350560         1.780583
 C        -3.365968         1.503858        -0.056537
 C        -4.666804         1.196125        -0.725292
 C        -4.706461         1.456671        -2.190300
 O        -5.261389         2.384530        -1.219642
 H         1.330895        -0.552490        -1.437387
 H         1.657269         0.946428        -0.736176
 H         1.947273        -0.536167         0.314840
 H        -3.143679        -0.656906        -0.046620
 H        -2.854536         0.284161         2.475462
 H        -3.642125         2.131710         0.793788
 H        -2.627458         1.995888        -0.771207
 H        -5.265404         0.449197        -0.193294
 H        -3.759831         1.887156        -2.528602
 H        -5.400927         0.998482        -2.974311
