19
Iteration:  1388charge 0 multiplicity 1
 C         0.722096        -0.142593        -1.020468
 C        -0.508731         0.083004        -0.316651
 C        -1.598659        -0.045648         0.177340
 C        -2.907861         0.055386         0.916618
 O        -2.607780         0.107397         2.322889
 C        -3.730164         1.218746         0.396001
 C        -4.307277         1.128800        -1.049281
 C        -3.908047         1.784837        -2.408992
 O        -5.118262         2.154098        -1.564775
 H         0.629868        -0.819523        -1.822247
 H         1.085588         0.833746        -1.253497
 H         1.479618        -0.415070        -0.301567
 H        -3.377772        -0.965753         0.889219
 H        -1.842583         0.668184         2.470338
 H        -4.517400         1.330586         1.170059
 H        -2.950821         2.004970         0.470737
 H        -4.716091         0.088286        -1.102674
 H        -3.036071         2.449558        -2.374798
 H        -4.267814         1.239742        -3.326863
