19
Iteration:  3434
 C         1.464992        -0.161030         0.461669
 C        -0.015934        -0.030155         0.123035
 C        -1.216390         0.001379        -0.227259
 C        -2.634738         0.079299        -0.230136
 O        -2.930454        -0.061218         1.180522
 C        -3.040089         1.452528        -0.695730
 C        -4.519889         1.777159        -0.428461
 C        -5.541484         0.954348        -1.130668
 O        -5.258925         2.340974        -1.516450
 H         1.493791        -0.613018         1.437978
 H         2.193202        -0.633067        -0.174793
 H         1.848569         0.880284         0.533666
 H        -3.053547        -0.692093        -0.929845
 H        -3.855729         0.132971         1.272275
 H        -2.427729         2.122858        -0.082894
 H        -2.863550         1.559096        -1.775273
 H        -4.567838         2.260949         0.575744
 H        -5.166718         0.327782        -1.973001
 H        -6.518876         0.886397        -0.734801
