19
Iteration:  3300charge 0 multiplicity 1
 C         1.427247        -0.033526        -0.360017
 C         0.009343         0.129770        -0.084452
 C        -1.139365         0.051068         0.318369
 C        -2.691929        -0.066606         0.305330
 O        -3.319350        -0.224157         1.639535
 C        -3.164428         1.249969        -0.374544
 C        -4.561927         1.424665        -0.567302
 C        -5.176967         1.230098        -1.962747
 O        -5.045926         2.577954        -1.332777
 H         1.889135         0.296885         0.618282
 H         1.781912        -0.980571        -0.602985
 H         1.765540         0.687317        -1.094610
 H        -2.919607        -0.920062        -0.349147
 H        -3.730441         0.577167         1.878053
 H        -2.914415         2.072960         0.288693
 H        -2.478758         1.350146        -1.194771
 H        -5.310474         1.221980         0.187736
 H        -4.518192         1.140733        -2.766308
 H        -6.139854         0.659988        -1.893867
