19
Iteration:   106
 C         1.590418         0.044378         0.325733
 C         0.101829        -0.329516         0.115493
 C        -1.083338        -0.054490        -0.120480
 C        -2.509365         0.041858        -0.306058
 O        -3.286684        -0.562811         0.746739
 C        -3.068455         1.523331        -0.553098
 C        -4.506747         1.725511        -0.373053
 C        -5.674902         1.287869        -1.141777
 O        -5.242708         2.658817        -1.142615
 H         2.240125        -0.758059         0.730217
 H         1.986168         0.449640        -0.641491
 H         1.651341         0.846297         1.087681
 H        -2.843708        -0.574897        -1.201015
 H        -2.751484        -0.618573         1.568462
 H        -2.414935         2.030804         0.207728
 H        -2.565155         1.980247        -1.488701
 H        -4.820609         1.950479         0.709253
 H        -5.565245         0.820881        -2.189941
 H        -6.643785         1.051008        -0.567015
