19
Iteration:   498
 C         1.334419         0.060996        -0.457001
 C        -0.049336        -0.153440        -0.084620
 C        -1.232629        -0.040263         0.171817
 C        -2.725772        -0.036283         0.357458
 O        -2.958224        -0.295970         1.731476
 C        -3.229052         1.461690        -0.070702
 C        -4.566705         1.418219        -0.647739
 C        -5.038826         1.352595        -2.095185
 O        -5.198013         2.600410        -1.329074
 H         1.464013         0.211160        -1.533845
 H         1.812724         0.882890         0.119547
 H         1.854037        -0.903492        -0.380447
 H        -3.256933        -0.815603        -0.206165
 H        -3.878983        -0.531368         1.840969
 H        -3.204392         2.081055         0.852203
 H        -2.539795         2.047984        -0.712571
 H        -5.303584         0.808735         0.010001
 H        -4.321098         1.214355        -2.888601
 H        -6.018420         0.963962        -2.349342
