19
Iteration:  4195
 C         0.752555         0.039520        -0.982096
 C        -0.488197        -0.032336        -0.308120
 C        -1.594383        -0.017023         0.263282
 C        -2.902574         0.160407         0.827332
 O        -2.713873         0.277458         2.276779
 C        -3.573452         1.588553         0.279837
 C        -4.595080         1.326242        -0.743109
 C        -4.146452         0.828901        -2.092182
 O        -4.719448         2.187533        -1.941730
 H         0.567842         0.292038        -2.076647
 H         1.343856         0.903034        -0.668450
 H         1.394137        -0.803411        -0.974952
 H        -3.620381        -0.625539         0.537133
 H        -2.262670        -0.475146         2.604343
 H        -4.026013         2.114627         1.162810
 H        -2.601435         1.950992        -0.199679
 H        -5.568643         1.023716        -0.407173
 H        -3.081659         0.853159        -2.105510
 H        -4.623617         0.194519        -2.896053
