19
Iteration:  1442
 C         0.703468        -0.014088        -0.983966
 C        -0.657819        -0.154312        -0.627802
 C        -1.725475        -0.023148        -0.077050
 C        -2.967349         0.074040         0.886549
 O        -2.527389         0.407064         2.221056
 C        -4.012472         1.065384         0.441745
 C        -4.378523         0.925255        -0.953647
 C        -3.535967         1.791228        -1.824910
 O        -4.933980         2.112844        -1.672316
 H         0.829616        -0.382244        -1.963518
 H         1.030400         0.985813        -1.042551
 H         1.245570        -0.690208        -0.369721
 H        -3.466637        -0.850152         1.055234
 H        -2.049518         1.203501         2.038528
 H        -4.779423         1.011358         1.237413
 H        -3.639982         2.111571         0.603851
 H        -4.979387         0.028578        -1.124384
 H        -2.698506         2.383526        -1.386712
 H        -3.209096         1.494081        -2.888237
