19
Iteration:  4807
 C         0.962691        -0.310143        -0.702097
 C        -0.349923        -0.247824        -0.283217
 C        -1.529242        -0.030723         0.074439
 C        -2.894652         0.279100         0.717971
 O        -2.849172         0.194276         2.100340
 C        -3.515033         1.664509         0.370391
 C        -4.452335         1.326678        -0.765762
 C        -4.268922         1.219623        -2.288643
 O        -5.014377         2.277135        -1.682144
 H         1.559978         0.654558        -0.532712
 H         1.593233        -1.060834        -0.292765
 H         0.938697        -0.584400        -1.766742
 H        -3.605570        -0.552976         0.587706
 H        -1.914997         0.076436         2.107815
 H        -4.092186         2.042629         1.123803
 H        -2.771701         2.353325        -0.080192
 H        -5.201852         0.582382        -0.416972
 H        -3.288139         1.382592        -2.780026
 H        -4.826944         0.349479        -2.841810
