19
Iteration:  2697charge 0 multiplicity 1
 C         0.980720        -0.081784        -0.625988
 C        -0.371171         0.098710        -0.394320
 C        -1.579346        -0.020263        -0.066131
 C        -2.791104         0.081167         0.745079
 O        -2.525823         0.018935         2.191726
 C        -3.865350         1.169629         0.318658
 C        -4.378835         1.013051        -1.110877
 C        -4.126456         2.031508        -2.185944
 O        -5.307238         2.114432        -1.461657
 H         1.229213        -0.180531        -1.733909
 H         1.542918         0.817737        -0.288407
 H         1.341935        -1.072163        -0.357833
 H        -3.264157        -0.891088         0.661296
 H        -1.639040        -0.336995         2.209036
 H        -4.696878         1.070416         1.080821
 H        -3.335078         2.218861         0.505687
 H        -4.769185        -0.001702        -1.426595
 H        -3.309018         2.773219        -2.082771
 H        -4.191669         1.554543        -3.135543
