19
Iteration:  3158
 C         1.175829        -0.126108        -0.399784
 C        -0.170069         0.027617        -0.290828
 C        -1.397074         0.091374        -0.101025
 C        -2.721537         0.082426         0.529700
 O        -2.753775        -0.051202         1.981981
 C        -3.535021         1.439997         0.121877
 C        -4.597793         1.083016        -0.863267
 C        -4.471894         1.524985        -2.276940
 O        -5.281542         2.270013        -1.296647
 H         1.733064         0.588700         0.245457
 H         1.411314        -1.077704        -0.019474
 H         1.769118        -0.139789        -1.300526
 H        -3.214365        -0.854402         0.153019
 H        -3.561084         0.400789         2.113600
 H        -4.074919         1.832534         1.127900
 H        -2.875383         2.296485        -0.238515
 H        -5.295429         0.245595        -0.730971
 H        -3.669007         2.195299        -2.582980
 H        -5.036844         1.118889        -3.093423
