19
Iteration:  3796charge 0 multiplicity 1
 C         1.278167        -0.180413        -0.485446
 C        -0.022396        -0.028117         0.133644
 C        -1.211624        -0.019076         0.311294
 C        -2.674647         0.132687         0.524882
 O        -3.175936         0.233418         1.818268
 C        -3.108948         1.388214        -0.387869
 C        -4.593302         1.228415        -0.781781
 C        -5.158539         1.165443        -2.112860
 O        -5.089240         2.411079        -1.402374
 H         1.393634        -1.073172        -0.999521
 H         1.492425         0.562052        -1.180980
 H         2.181678        -0.144692         0.094795
 H        -3.090975        -0.803716         0.069817
 H        -2.504698        -0.002855         2.425774
 H        -3.071838         2.374361         0.139997
 H        -2.364606         1.435135        -1.255961
 H        -5.118513         0.864190         0.069946
 H        -4.591969         0.967352        -3.065187
 H        -6.186277         0.867929        -2.092797
