19
Iteration:  1903charge 0 multiplicity 1
 C         1.136882        -0.136800        -0.745503
 C        -0.255697        -0.023612        -0.320645
 C        -1.330727         0.180592         0.162845
 C        -2.810869         0.171515         0.653268
 O        -2.739675         0.066233         2.178857
 C        -3.675479         1.447856         0.394807
 C        -4.644892         1.210432        -0.824919
 C        -4.327207         1.264975        -2.275097
 O        -5.196675         2.304465        -1.724322
 H         1.747081         0.679901        -0.292643
 H         1.539097        -1.196676        -0.722110
 H         1.109024         0.228861        -1.835328
 H        -3.303615        -0.772302         0.357641
 H        -2.696709        -0.875981         2.344103
 H        -4.173471         1.618248         1.347857
 H        -3.027070         2.260728         0.207707
 H        -5.432105         0.473293        -0.634467
 H        -3.312368         1.500434        -2.500400
 H        -4.565162         0.378409        -2.807711
