19
Iteration:  1669
 C         0.266383         0.063647        -1.537485
 C        -0.844908        -0.055425        -0.495242
 C        -1.686611         0.047667         0.326606
 C        -2.929971         0.162830         1.078529
 O        -2.873630         0.340617         2.455486
 C        -3.736493         1.318777         0.438704
 C        -3.925070         0.968067        -1.001483
 C        -3.372014         1.866904        -1.991294
 O        -4.825372         1.682322        -1.709405
 H         0.000075         0.956962        -2.186452
 H         1.352423         0.097498        -1.265324
 H         0.218135        -0.784717        -2.263161
 H        -3.306769        -0.898581         0.755595
 H        -2.760437        -0.588633         2.800998
 H        -4.628371         1.317850         1.031032
 H        -3.205655         2.321936         0.596636
 H        -3.895243        -0.116534        -1.248440
 H        -2.831240         2.790335        -1.666324
 H        -3.004289         1.650414        -3.019697
