19
Iteration:  4295
 C         0.659939        -0.162546        -1.158496
 C        -0.519031        -0.001021        -0.427437
 C        -1.628431         0.054917         0.094108
 C        -2.941976         0.162199         0.978945
 O        -2.622190         0.563327         2.411871
 C        -4.060852         1.283027         0.512860
 C        -4.567318         1.092324        -0.891867
 C        -3.739658         1.072999        -2.098927
 O        -4.613717         2.227694        -1.900169
 H         0.511429         0.398742        -2.146638
 H         1.474658         0.336629        -0.683488
 H         0.951057        -1.182606        -1.349587
 H        -3.403101        -0.851780         0.935544
 H        -1.609104         0.658860         2.283868
 H        -4.872801         1.256642         1.292454
 H        -3.483324         2.192778         0.709368
 H        -5.511823         0.534982        -1.090035
 H        -2.671071         1.249798        -2.161437
 H        -4.022172         0.334209        -2.808983
