19
Iteration:  3607
 C         1.559567        -0.247890         0.427733
 C         0.100341        -0.186136         0.076504
 C        -1.065224         0.041726        -0.144882
 C        -2.517611         0.158290        -0.231855
 O        -3.301758        -0.041399         1.072811
 C        -3.014608         1.535202        -0.635008
 C        -4.529542         1.900041        -0.454901
 C        -5.599275         1.041531        -0.904142
 O        -5.289004         2.132433        -1.664604
 H         1.870226        -1.212625         0.944654
 H         2.221984        -0.008073        -0.339145
 H         1.647854         0.536853         1.207581
 H        -2.848879        -0.579907        -0.982864
 H        -2.968230         0.746523         1.618988
 H        -2.424653         2.327926        -0.276496
 H        -2.644514         1.716850        -1.641453
 H        -4.762853         2.607537         0.408771
 H        -5.191352         0.111305        -1.292743
 H        -6.656166         0.964806        -0.546889
