19
Iteration:  1811charge 0 multiplicity 1
 C         0.885992        -0.215740        -0.732900
 C        -0.499505         0.057349        -0.469486
 C        -1.635697         0.175675        -0.077138
 C        -2.842728         0.134920         0.857151
 O        -2.331570         0.156683         2.176248
 C        -4.013195         1.179347         0.500317
 C        -4.606837         1.134002        -0.950859
 C        -3.880132         1.490023        -2.174203
 O        -5.069966         2.239770        -1.724938
 H         1.576478         0.628806        -0.570817
 H         1.124619        -1.056832        -0.087051
 H         1.186239        -0.544964        -1.721738
 H        -3.438147        -0.732209         0.793398
 H        -2.325535         1.091939         2.483570
 H        -4.914026         1.030582         1.173298
 H        -3.666380         2.300914         0.696526
 H        -5.296812         0.319948        -1.169723
 H        -2.873083         2.011975        -1.957228
 H        -3.826010         0.735137        -3.029624
