19
Iteration:   446charge 0 multiplicity 1
 C         1.402592        -0.100235        -0.262227
 C        -0.035785         0.074106        -0.103973
 C        -1.243134         0.047239         0.020681
 C        -2.638314        -0.006936         0.187947
 O        -2.888411        -0.347643         1.644093
 C        -3.316394         1.282952        -0.142299
 C        -4.800263         1.525408        -0.478930
 C        -5.199905         1.256965        -1.921181
 O        -4.990308         2.643442        -1.413323
 H         1.702231         0.022659        -1.303385
 H         1.890518         0.738772         0.250980
 H         1.814534        -0.993182         0.237252
 H        -3.181737        -0.890683        -0.291157
 H        -3.770135        -0.079728         1.859095
 H        -3.191281         1.884410         0.732263
 H        -2.949573         1.936268        -0.970073
 H        -5.634483         1.356555         0.342800
 H        -4.402891         1.017590        -2.664603
 H        -6.222262         0.913688        -2.218361
