19
Iteration:   861
 C         1.473568         0.035885         0.407287
 C         0.064769        -0.170837         0.099350
 C        -1.106467        -0.170969        -0.164050
 C        -2.601286         0.007489        -0.275043
 O        -3.090883        -0.176433         1.110201
 C        -3.091296         1.387008        -0.812826
 C        -4.464119         1.601801        -0.453457
 C        -5.698775         1.208690        -1.259337
 O        -5.201718         2.602840        -1.115990
 H         1.710340         1.092464         0.703618
 H         1.909159        -0.681680         1.116197
 H         2.033426        -0.097680        -0.557983
 H        -3.095138        -0.732704        -0.953017
 H        -2.391729        -0.673342         1.516776
 H        -2.449173         2.202868        -0.416852
 H        -3.167480         1.550246        -1.941163
 H        -4.734517         1.543306         0.530164
 H        -5.340719         0.814527        -2.149624
 H        -6.706511         0.965187        -1.000898
