19
Iteration:  4816
 C         0.961349        -0.303972        -0.713639
 C        -0.464117        -0.199461        -0.337693
 C        -1.540289        -0.007672         0.142553
 C        -2.873739         0.234872         0.705868
 O        -2.804589         0.157198         2.141158
 C        -3.503902         1.647056         0.312592
 C        -4.507844         1.392972        -0.753880
 C        -4.220487         1.143279        -2.219981
 O        -5.000454         2.285508        -1.751600
 H         1.525871         0.653530        -0.523227
 H         1.539655        -1.130883        -0.201448
 H         1.145347        -0.480262        -1.778565
 H        -3.447158        -0.539674         0.121926
 H        -1.935457        -0.005971         2.453283
 H        -3.845476         2.054563         1.234836
 H        -2.743853         2.361915        -0.121049
 H        -5.399944         0.802866        -0.481916
 H        -3.320404         1.502604        -2.569055
 H        -4.845909         0.410387        -2.723850
