19
Iteration:  4506charge 0 multiplicity 1
 C         0.417535        -0.464031        -1.317894
 C        -0.713501        -0.213733        -0.353850
 C        -1.504254         0.153223         0.498254
 C        -2.970240         0.173990         1.072491
 O        -2.682345         0.804172         2.443832
 C        -3.730595         1.263327         0.249761
 C        -3.812822         0.929754        -1.273280
 C        -3.864037         2.145244        -2.056363
 O        -5.033845         1.546263        -1.754039
 H         0.642384         0.405140        -1.870414
 H         1.356118        -0.787930        -0.782867
 H         0.091685        -1.345642        -1.921415
 H        -3.569688        -0.730433         1.270471
 H        -2.218958         0.125867         2.918903
 H        -4.735344         1.352981         0.645505
 H        -3.202381         2.132309         0.447208
 H        -3.490645        -0.144516        -1.527889
 H        -3.691981         3.071744        -1.618626
 H        -3.574725         2.052566        -3.141864
