19
Iteration:   171
 C         1.227060        -0.075788         0.465548
 C        -0.089029         0.111966        -0.058855
 C        -1.227909         0.031336        -0.384105
 C        -2.633875         0.027469        -0.332226
 O        -3.215510        -0.589003         0.841109
 C        -2.875934         1.549013        -0.602296
 C        -4.283632         1.791937        -0.267861
 C        -5.315007         1.123051        -1.056291
 O        -5.249068         2.479874        -1.119115
 H         1.450186        -1.161127         0.565851
 H         2.040499         0.416136        -0.137586
 H         1.273731         0.354931         1.483789
 H        -2.960297        -0.565454        -1.253178
 H        -3.587606         0.152656         1.302613
 H        -2.302350         2.334991        -0.027137
 H        -2.638456         1.769473        -1.739558
 H        -4.337710         2.064296         0.888574
 H        -4.911917         0.622678        -2.006395
 H        -6.213024         0.631767        -0.553996
