19
Iteration:   328
 C         1.499121        -0.174880         0.035391
 C         0.081130        -0.083516         0.125395
 C        -1.137162         0.029754         0.098562
 C        -2.544234         0.162244        -0.248541
 O        -3.274496        -0.277365         1.028583
 C        -3.025247         1.672892        -0.400429
 C        -4.544597         1.560880        -0.381236
 C        -5.530009         1.039366        -1.392223
 O        -5.211147         2.531966        -1.228143
 H         1.702372        -0.808504        -0.849035
 H         2.095070         0.732868        -0.100105
 H         1.862377        -0.645163         0.982071
 H        -2.827737        -0.461372        -1.063076
 H        -2.662473        -0.952772         1.455320
 H        -2.524878         2.207374         0.410058
 H        -2.788327         2.064111        -1.419785
 H        -5.009965         1.591287         0.542848
 H        -5.108880         0.691040        -2.361199
 H        -6.558300         0.625210        -1.189268
