19
Iteration:  4832charge 0 multiplicity 1
 C         0.899757        -0.282495        -0.730909
 C        -0.447906        -0.121632        -0.410376
 C        -1.497028         0.050778         0.143543
 C        -2.883761         0.266099         0.721156
 O        -2.817316         0.092401         2.203602
 C        -3.408855         1.596470         0.208842
 C        -4.669980         1.348516        -0.734812
 C        -4.200314         1.115360        -2.101651
 O        -4.935606         2.360753        -1.837883
 H         1.478756         0.563673        -0.376885
 H         1.311821        -1.119962        -0.188722
 H         1.124657        -0.543264        -1.784122
 H        -3.561596        -0.546630         0.674529
 H        -1.956809        -0.213499         2.244777
 H        -4.017633         2.016369         1.079242
 H        -2.635401         2.219849        -0.163089
 H        -5.517520         0.837688        -0.241259
 H        -2.986237         1.068785        -2.174235
 H        -4.690955         0.393491        -2.803946
