19
Iteration:  1242charge 0 multiplicity 1
 C         1.223730        -0.156187        -0.574516
 C        -0.174786        -0.073132        -0.181601
 C        -1.403004         0.002098         0.048464
 C        -2.768292         0.071110         0.496004
 O        -2.827951         0.040193         1.911966
 C        -3.469852         1.467237         0.097638
 C        -4.715841         1.260521        -0.743230
 C        -4.608633         1.260858        -2.176433
 O        -5.079670         2.497500        -1.368181
 H         1.365541        -1.212734        -0.532710
 H         1.438570         0.212864        -1.532844
 H         1.890149         0.280415         0.118145
 H        -3.555125        -0.555015         0.003545
 H        -2.448610        -0.848411         2.096687
 H        -3.753995         1.863858         1.078423
 H        -2.963803         2.269486        -0.495485
 H        -5.582339         0.775950        -0.309774
 H        -3.493187         1.314604        -2.526063
 H        -5.364973         0.908874        -2.917419
