19
Iteration:  1967
 C         1.066029         0.138160        -0.783606
 C        -0.304778         0.069066        -0.259277
 C        -1.388634        -0.149326         0.359055
 C        -2.748765        -0.000550         0.578843
 O        -3.121418         0.179958         2.141557
 C        -3.197412         1.322640        -0.049883
 C        -4.565273         1.206494        -0.758281
 C        -4.555041         1.233433        -2.291767
 O        -5.033131         2.309730        -1.434414
 H         1.691750         0.664454        -0.061615
 H         1.476412        -0.829755        -1.146534
 H         0.980352         0.815470        -1.652918
 H        -3.294530        -0.879031         0.193976
 H        -2.273210        -0.126301         2.610271
 H        -3.286886         1.989071         0.856610
 H        -2.327122         1.636403        -0.680424
 H        -5.285228         0.682442        -0.145105
 H        -3.568127         1.378815        -2.738603
 H        -5.316550         0.590307        -2.805633
