19
Iteration:  2794charge 0 multiplicity 1
 C         0.415905         0.178281        -1.304978
 C        -0.732811         0.102870        -0.432308
 C        -1.632292         0.025493         0.295073
 C        -2.870542        -0.142950         0.994352
 O        -2.608371         0.220180         2.329619
 C        -3.969207         0.896396         0.437683
 C        -4.081466         0.977246        -1.075560
 C        -3.456330         2.039708        -1.984310
 O        -4.918901         2.022961        -1.709847
 H         0.209560         0.634617        -2.339796
 H         1.086654         1.060151        -1.082605
 H         0.910971        -0.799313        -1.409057
 H        -3.161663        -1.250961         0.817589
 H        -3.346617        -0.078332         2.862033
 H        -4.928613         0.567484         0.695303
 H        -3.868960         1.877691         0.715977
 H        -4.396421         0.027081        -1.538313
 H        -2.804676         2.803729        -1.449579
 H        -3.319057         1.929319        -3.061772
