19
Iteration:  3725
 C         1.489609        -0.041279        -0.159841
 C         0.007877        -0.184053        -0.082142
 C        -1.183316        -0.118978         0.112066
 C        -2.692944         0.185605         0.335956
 O        -3.275256         0.137283         1.604479
 C        -3.114861         1.417744        -0.374356
 C        -4.584270         1.512712        -0.590703
 C        -5.475662         1.067144        -1.640874
 O        -4.917647         2.336026        -1.645589
 H         2.161343        -0.946710        -0.360210
 H         1.893245         0.603666        -0.973167
 H         2.057907         0.382884         0.662111
 H        -3.206067        -0.602044        -0.193425
 H        -3.093944        -0.512813         2.229508
 H        -2.676709         2.341260         0.160245
 H        -2.648408         1.646072        -1.320368
 H        -5.115311         1.629871         0.375513
 H        -5.067292         0.483917        -2.411868
 H        -6.571016         0.929636        -1.453755
