19
Iteration:  1218charge 0 multiplicity 1
 C         1.296489        -0.140916        -0.390324
 C        -0.190708        -0.238326        -0.351714
 C        -1.330461         0.065462        -0.062767
 C        -2.725572         0.092586         0.430300
 O        -2.846203        -0.022700         1.910870
 C        -3.501951         1.460363         0.208171
 C        -4.705683         1.311547        -0.677419
 C        -4.812466         1.250976        -2.134161
 O        -5.019829         2.527238        -1.497605
 H         1.744983        -1.082712        -0.158560
 H         1.669744         0.267343        -1.285556
 H         1.565689         0.525255         0.405277
 H        -3.480245        -0.603073        -0.043104
 H        -1.990778        -0.440895         2.246710
 H        -3.619643         1.762575         1.256155
 H        -3.031849         2.239049        -0.370749
 H        -5.681828         1.061685        -0.262736
 H        -4.010457         1.446783        -2.808460
 H        -5.653958         0.727315        -2.589101
