19
Iteration:  3867
 C         1.253692        -0.301567        -0.398152
 C        -0.092652        -0.026395        -0.005465
 C        -1.322474        -0.034466         0.171823
 C        -2.684428         0.172582         0.562140
 O        -2.921528         0.295066         1.935151
 C        -3.192252         1.436230        -0.297007
 C        -4.612699         1.203887        -0.841390
 C        -4.828119         1.281611        -2.273562
 O        -5.408779         2.291175        -1.318791
 H         1.374504        -1.240009        -1.067113
 H         1.824035         0.548460        -0.954853
 H         1.978123        -0.537509         0.416863
 H        -3.427173        -0.677788         0.408089
 H        -2.219087         0.769686         2.349196
 H        -3.164918         2.234164         0.405781
 H        -2.671837         1.629336        -1.197644
 H        -5.111936         0.354550        -0.284246
 H        -4.058265         1.791400        -2.846559
 H        -5.498006         0.566004        -2.827775
