19
Iteration:  1629charge 0 multiplicity 1
 C         0.099744        -0.043166        -1.598279
 C        -0.874047         0.206695        -0.580911
 C        -1.691605         0.095338         0.386865
 C        -2.921078         0.099953         1.176544
 O        -2.820533         0.178106         2.627111
 C        -3.812167         1.235599         0.553274
 C        -3.887644         1.035799        -1.023978
 C        -3.308839         1.936500        -2.077105
 O        -4.735124         1.676957        -1.927498
 H        -0.231767         0.609436        -2.434522
 H         1.140522         0.262357        -1.308183
 H        -0.038867        -1.126763        -1.865818
 H        -3.524620        -0.756174         0.958069
 H        -1.941490         0.238975         2.966194
 H        -4.822995         1.209633         1.021088
 H        -3.530485         2.235164         0.853526
 H        -3.704436        -0.021804        -1.301354
 H        -2.790397         2.914217        -1.820711
 H        -2.902785         1.531537        -3.011196
