19
Iteration:  4249charge 0 multiplicity 1
 C         0.723009        -0.056592        -1.033007
 C        -0.711194         0.019840        -0.434067
 C        -1.789450         0.225449         0.079386
 C        -2.984488         0.241690         0.841220
 O        -2.670733         0.350916         2.324547
 C        -3.702115         1.429290         0.411136
 C        -4.501798         1.150771        -0.750585
 C        -3.903008         0.872665        -2.111547
 O        -4.568074         2.151193        -1.824584
 H         0.708266         0.354257        -2.146449
 H         1.419756         0.624456        -0.426479
 H         1.128011        -1.070040        -0.944622
 H        -3.608386        -0.682392         0.778427
 H        -1.727142         0.173168         2.431992
 H        -4.230647         1.883519         1.265970
 H        -2.829631         2.198227         0.204071
 H        -5.318416         0.514899        -0.622213
 H        -2.902159         0.834291        -2.433251
 H        -4.375308         0.141283        -2.860812
