19
Iteration:  2007
 C         1.075494         0.248179        -0.723174
 C        -0.164137        -0.153890        -0.060281
 C        -1.260075        -0.117647         0.368614
 C        -2.705971         0.018441         0.580279
 O        -3.111304         0.026450         2.035276
 C        -3.175880         1.326804        -0.177635
 C        -4.546519         1.301877        -0.746613
 C        -4.846590         1.171834        -2.209737
 O        -4.990835         2.369613        -1.447483
 H         1.905403         0.433221        -0.044546
 H         1.539250        -0.593401        -1.231013
 H         0.982152         0.957330        -1.523405
 H        -3.299670        -0.890896         0.244982
 H        -3.049527         0.963332         2.167718
 H        -3.122820         2.202751         0.462090
 H        -2.566846         1.696380        -1.071867
 H        -5.365314         0.902529        -0.140444
 H        -3.985586         1.012429        -2.852762
 H        -5.908574         1.014153        -2.502866
