19
Iteration:  4564charge 0 multiplicity 1
 C         0.710447        -0.602261        -1.149311
 C        -0.474433        -0.240963        -0.350174
 C        -1.444254        -0.020958         0.305916
 C        -2.922941         0.256806         1.043493
 O        -2.747576         0.769365         2.361717
 C        -3.809128         1.331571         0.411864
 C        -4.022458         1.071194        -1.140723
 C        -3.951763         2.195879        -2.205060
 O        -5.234985         1.585305        -1.779519
 H         1.136731         0.170721        -1.686967
 H         1.511270        -1.086948        -0.602350
 H         0.473044        -1.283178        -1.924099
 H        -3.366023        -0.741303         1.127167
 H        -2.058214         0.115001         2.682054
 H        -4.677277         1.337164         0.995665
 H        -3.303717         2.230010         0.805587
 H        -3.624811         0.076325        -1.328539
 H        -3.778998         3.312806        -1.932730
 H        -3.615825         1.892656        -3.163395
