19
Iteration:  3632charge 0 multiplicity 1
 C         1.442427        -0.209657         0.330207
 C         0.020793        -0.019577        -0.000593
 C        -1.191739        -0.001789        -0.019413
 C        -2.626608         0.118729        -0.146752
 O        -3.184986        -0.035993         1.165750
 C        -3.034304         1.535606        -0.602053
 C        -4.510726         1.830852        -0.530404
 C        -5.554998         0.985470        -0.961793
 O        -5.119616         2.200667        -1.717088
 H         1.638187        -1.226323         0.684669
 H         2.186592         0.066406        -0.506624
 H         1.681916         0.461699         1.221862
 H        -3.014163        -0.639789        -0.832943
 H        -2.402666         0.020286         1.799417
 H        -2.498747         2.261991        -0.135113
 H        -2.571219         1.722340        -1.576726
 H        -4.749700         2.294870         0.479389
 H        -5.410866         0.068119        -1.522357
 H        -6.525254         1.049982        -0.387689
