19
Iteration:  1141charge 0 multiplicity 1
 C         1.252553        -0.142509        -0.185053
 C        -0.140048        -0.003375        -0.095628
 C        -1.347633         0.075972        -0.169841
 C        -2.723252         0.054817         0.211086
 O        -2.946182        -0.220991         1.628578
 C        -3.229361         1.530349        -0.084985
 C        -4.643818         1.527027        -0.493905
 C        -5.022487         1.117251        -1.824531
 O        -5.034754         2.472426        -1.501817
 H         1.479472        -1.002171         0.392429
 H         1.561969        -0.352088        -1.176261
 H         1.798709         0.665632         0.240759
 H        -3.334720        -0.731556        -0.307158
 H        -2.315898         0.328978         2.098692
 H        -2.856609         2.065040         0.801261
 H        -2.599322         1.877421        -0.891811
 H        -5.457119         1.359907         0.253999
 H        -4.275364         0.686524        -2.457947
 H        -6.051472         0.759203        -2.008879
