19
Iteration:    68
 C         1.594677        -0.112502         0.172988
 C         0.160983         0.045299         0.143113
 C        -1.063879         0.053639         0.005239
 C        -2.566400        -0.004119        -0.197300
 O        -3.082177        -0.807599         0.881872
 C        -3.153239         1.374387        -0.554499
 C        -4.642668         1.769897        -0.292371
 C        -5.676390         1.404130        -1.371145
 O        -5.203689         2.742104        -1.126939
 H         1.838899        -1.077815         0.629974
 H         2.026842        -0.065460        -0.813629
 H         2.085743         0.645147         0.798111
 H        -2.654358        -0.595234        -1.092514
 H        -3.995072        -0.429292         1.063100
 H        -2.624900         2.138475        -0.025873
 H        -2.973932         1.575763        -1.571232
 H        -4.935609         1.904609         0.721135
 H        -5.384619         1.046341        -2.306937
 H        -6.636091         1.121827        -1.095406
