19
Iteration:  1633
 C         0.142093        -0.032731        -1.594557
 C        -0.910255         0.205027        -0.586129
 C        -1.705301         0.093634         0.397879
 C        -2.899250         0.097049         1.173546
 O        -2.850050         0.189699         2.595217
 C        -3.788375         1.254500         0.546947
 C        -3.895219         1.036637        -0.980772
 C        -3.306612         1.951348        -2.089783
 O        -4.732880         1.664014        -1.925245
 H        -0.181825         0.537186        -2.428032
 H         1.163428         0.168630        -1.429249
 H        -0.025264        -1.022915        -1.931251
 H        -3.565671        -0.793350         1.051889
 H        -1.891960         0.110672         2.907903
 H        -4.849503         1.139911         0.965838
 H        -3.383852         2.256552         0.794484
 H        -3.735518        -0.039092        -1.138993
 H        -2.903357         2.842191        -1.662200
 H        -2.930742         1.456495        -2.968847
