19
Iteration:  1436charge 0 multiplicity 1
 C         0.718507        -0.016309        -0.974549
 C        -0.660827        -0.176425        -0.636950
 C        -1.772992        -0.019581        -0.045550
 C        -2.922391         0.095388         0.865860
 O        -2.527094         0.367804         2.264667
 C        -3.968637         1.132433         0.457759
 C        -4.399034         0.950390        -0.996069
 C        -3.564608         1.778151        -1.914021
 O        -4.920630         2.084119        -1.614925
 H         0.788647        -0.503400        -2.026083
 H         1.093905         1.067081        -0.903390
 H         1.401026        -0.589954        -0.252086
 H        -3.458660        -0.932850         0.922981
 H        -2.044989         1.215962         2.130812
 H        -4.779758         0.886168         1.173111
 H        -3.730090         2.190800         0.482962
 H        -4.964180         0.060718        -1.347942
 H        -2.873473         2.485501        -1.463877
 H        -3.415497         1.545393        -2.915320
