19
Iteration:   235
 C         1.578833        -0.172849         0.462579
 C         0.136174        -0.291997         0.116922
 C        -0.957852         0.145953        -0.273025
 C        -2.462589         0.194275        -0.441552
 O        -3.089472        -0.420522         0.862051
 C        -3.092362         1.542769        -0.499324
 C        -4.592807         1.641484        -0.371399
 C        -5.859841         1.221579        -1.011918
 O        -5.221300         2.531362        -1.283688
 H         2.144774        -1.081658         0.242179
 H         2.071235         0.622412        -0.126263
 H         1.642195         0.122260         1.498878
 H        -2.897842        -0.281461        -1.284083
 H        -3.947687        -0.827642         0.701176
 H        -2.842142         2.041755         0.418995
 H        -2.821588         1.937855        -1.476003
 H        -4.819071         2.170572         0.667666
 H        -5.676772         0.544366        -1.818663
 H        -6.860425         1.190146        -0.623113
