19
Iteration:  3123
 C         1.152025        -0.209660        -0.494334
 C        -0.246768         0.061001        -0.142354
 C        -1.426986         0.205054         0.052152
 C        -2.749530         0.082935         0.553050
 O        -2.516082        -0.144704         1.959723
 C        -3.726491         1.395530         0.269528
 C        -4.644595         1.189796        -0.958047
 C        -4.339629         1.580117        -2.287443
 O        -5.374517         2.253584        -1.483867
 H         1.772977         0.555143         0.000264
 H         1.345377        -1.086077         0.088606
 H         1.207846        -0.299886        -1.565072
 H        -3.350154        -0.760195         0.120378
 H        -2.014551         0.616458         2.225485
 H        -4.422379         1.478965         1.251482
 H        -3.058643         2.270315         0.185960
 H        -5.305732         0.316998        -0.875186
 H        -3.352906         2.152230        -2.606710
 H        -4.781739         0.945061        -3.076935
