19
Iteration:  2049
 C         1.303085         0.102249        -0.541724
 C        -0.026651         0.008426         0.078391
 C        -1.176297        -0.056649         0.321903
 C        -2.715647        -0.035774         0.441785
 O        -3.058581        -0.024228         1.832312
 C        -3.165137         1.357762        -0.334273
 C        -4.747811         1.413076        -0.588962
 C        -5.160737         1.071604        -2.032738
 O        -4.979797         2.466871        -1.515604
 H         2.152940        -0.052185         0.241466
 H         1.486366        -0.926162        -1.111620
 H         1.413192         1.011599        -1.279995
 H        -2.977328        -0.965863        -0.086672
 H        -3.827159         0.560066         2.025186
 H        -2.850898         2.166524         0.306471
 H        -2.542503         1.498983        -1.253426
 H        -5.402782         1.234972         0.322875
 H        -4.367079         0.938432        -2.777569
 H        -6.187700         0.716372        -2.304669
