19
Iteration:   907
 C         1.260030         0.009974         0.583110
 C         0.003479         0.057494        -0.245273
 C        -1.168699        -0.169251        -0.386034
 C        -2.604368        -0.071863        -0.220949
 O        -3.023982        -0.189711         1.187317
 C        -3.078117         1.329545        -0.823325
 C        -4.418268         1.641546        -0.353206
 C        -5.590028         1.134571        -1.229694
 O        -5.116243         2.623367        -1.179502
 H         1.185615         0.809393         1.329489
 H         1.228760        -0.971001         1.047954
 H         2.216704         0.165039         0.085941
 H        -3.207598        -0.880486        -0.624980
 H        -2.184417        -0.299675         1.706219
 H        -2.447054         2.078097        -0.320491
 H        -2.750556         1.331354        -1.923615
 H        -4.646588         1.718545         0.771646
 H        -5.457320         0.584873        -2.132382
 H        -6.534687         0.939343        -0.719190
