19
Iteration:  2482
 C         1.334817         0.170604        -0.235639
 C        -0.052830         0.049882         0.128834
 C        -1.219798        -0.058391         0.081892
 C        -2.696726        -0.017880         0.171992
 O        -3.119580        -0.449369         1.495416
 C        -3.135378         1.393114        -0.366148
 C        -4.609802         1.537192        -0.511420
 C        -5.280311         1.216893        -1.772023
 O        -4.998423         2.575172        -1.423655
 H         1.537372        -0.796508        -0.774012
 H         1.609332         1.110517        -0.754104
 H         1.958582         0.113326         0.720797
 H        -3.110848        -0.821844        -0.472927
 H        -2.478203        -0.274995         2.212655
 H        -2.800666         2.126587         0.341293
 H        -2.616993         1.562909        -1.245286
 H        -5.229543         1.436239         0.399468
 H        -4.734991         0.728403        -2.618833
 H        -6.320632         0.894923        -1.663287
