19
Iteration:  1334
 C         0.912990        -0.123030        -1.056599
 C        -0.341179        -0.220506        -0.279877
 C        -1.354182         0.173043         0.355138
 C        -2.783756         0.168199         0.743941
 O        -3.085090         0.049811         2.139742
 C        -3.485622         1.441213         0.194682
 C        -4.369957         1.102372        -0.910346
 C        -4.121875         1.612600        -2.258038
 O        -5.196226         2.176621        -1.394595
 H         0.894702        -1.038103        -1.735305
 H         0.985073         0.848017        -1.656564
 H         1.853907        -0.194671        -0.420608
 H        -3.112299        -0.873623         0.330410
 H        -2.328053         0.003838         2.774529
 H        -4.012848         1.719569         1.149322
 H        -2.755420         2.252598        -0.033431
 H        -4.825326         0.091446        -0.783461
 H        -3.325081         2.352592        -2.570266
 H        -4.356508         0.959316        -3.154202
