19
Iteration:   718charge 0 multiplicity 1
 C         1.441720        -0.112293        -0.044918
 C        -0.014931        -0.211779         0.046800
 C        -1.248441        -0.140209        -0.180403
 C        -2.662103         0.192937         0.025830
 O        -2.939627        -0.302970         1.350741
 C        -3.174910         1.615388        -0.022154
 C        -4.676795         1.591250        -0.418839
 C        -5.109085         1.222700        -1.817912
 O        -5.396649         2.546616        -1.353885
 H         1.783567         0.718319        -0.739350
 H         2.005758         0.165137         0.899470
 H         1.996248        -0.956413        -0.535458
 H        -3.233295        -0.457836        -0.663936
 H        -2.548205        -1.183910         1.327062
 H        -2.815384         2.162074         0.925434
 H        -2.884951         2.240908        -0.946926
 H        -5.278270         1.260706         0.467027
 H        -4.307355         1.168055        -2.557829
 H        -6.007690         0.681811        -1.924101
