19
Iteration:  2280charge 0 multiplicity 1
 C         1.466901        -0.267318         0.781289
 C         0.178338        -0.144538         0.204132
 C        -0.979868         0.212915        -0.206611
 C        -2.426196         0.133212        -0.518532
 O        -3.043061         0.000073         0.792757
 C        -3.153313         1.483263        -1.045003
 C        -4.448861         1.795199        -0.368394
 C        -5.628919         1.006748        -0.685096
 O        -5.573944         2.253109        -1.403221
 H         1.626140        -1.256854         1.314828
 H         2.291833        -0.403369         0.010105
 H         1.643258         0.580206         1.516018
 H        -2.642424        -0.667788        -1.280572
 H        -2.822814        -0.888721         1.070158
 H        -2.737017         2.385568        -0.706587
 H        -3.332237         1.568501        -2.143626
 H        -4.422050         2.488081         0.448378
 H        -5.438940         0.064467        -1.196807
 H        -6.392726         1.044688         0.027234
