19
Iteration:  1578
 C         0.102514        -0.009672        -1.665927
 C        -0.735830        -0.058513        -0.366280
 C        -1.621510         0.110501         0.382505
 C        -2.865806         0.084144         1.088270
 O        -2.802451         0.406300         2.515699
 C        -3.935515         0.949671         0.357748
 C        -3.959395         0.886355        -1.057466
 C        -3.302208         1.909658        -1.948642
 O        -4.734293         1.941501        -1.752304
 H        -0.490685         0.392759        -2.438190
 H         0.963239         0.586879        -1.523277
 H         0.403808        -0.994580        -1.904147
 H        -3.294636        -0.965987         1.044862
 H        -2.845563         1.379622         2.696663
 H        -4.943368         0.882150         0.846116
 H        -3.681177         1.994932         0.537671
 H        -4.151954        -0.116605        -1.450442
 H        -2.782294         2.653170        -1.392020
 H        -2.753040         1.739445        -2.822043
