19
Iteration:  2649charge 0 multiplicity 1
 C         1.223285        -0.197241        -0.627841
 C        -0.186375        -0.041260        -0.161044
 C        -1.321060         0.253616         0.012102
 C        -2.677307         0.141005         0.533466
 O        -2.776790         0.006346         1.962762
 C        -3.708576         1.276206         0.206568
 C        -4.555550         1.072885        -0.988423
 C        -4.288877         1.775341        -2.164849
 O        -5.461171         2.204646        -1.310691
 H         1.386470        -0.502697        -1.660629
 H         1.766612         0.738536        -0.364722
 H         1.636139        -1.106094        -0.128932
 H        -3.117840        -0.833532         0.099450
 H        -2.926326        -0.941429         2.217768
 H        -4.259301         1.182181         1.081185
 H        -3.272890         2.178658         0.252133
 H        -5.090217         0.159772        -1.044160
 H        -3.526097         2.555750        -2.135982
 H        -4.613601         1.425624        -3.189398
