19
Iteration:  3436charge 0 multiplicity 1
 C         1.480745        -0.164350         0.480371
 C        -0.016872        -0.036639         0.132653
 C        -1.227532        -0.001729        -0.207737
 C        -2.625411         0.086778        -0.241527
 O        -2.913180        -0.073159         1.165495
 C        -3.056776         1.464242        -0.720433
 C        -4.518665         1.799670        -0.421949
 C        -5.545696         0.944134        -1.140642
 O        -5.265365         2.327478        -1.504411
 H         1.463682        -0.616556         1.405680
 H         2.204507        -0.635922        -0.236593
 H         1.840838         0.853117         0.520368
 H        -3.135067        -0.700073        -0.903372
 H        -3.881837         0.167525         1.280688
 H        -2.409675         2.212608        -0.079925
 H        -2.840667         1.565286        -1.826779
 H        -4.567969         2.300030         0.561317
 H        -5.152683         0.328746        -1.928934
 H        -6.531992         0.939784        -0.694686
