19
Iteration:  4865charge 0 multiplicity 1
 C         0.876568        -0.267047        -0.830554
 C        -0.395976         0.005251        -0.312184
 C        -1.562026         0.090712         0.077198
 C        -2.974892         0.211505         0.736102
 O        -2.828980         0.192926         2.153400
 C        -3.572600         1.552884         0.342334
 C        -4.591563         1.364444        -0.722790
 C        -4.295704         0.955170        -2.162778
 O        -4.607212         2.325802        -1.757790
 H         1.619783         0.482750        -0.618696
 H         1.242755        -1.198065        -0.415681
 H         0.938096        -0.361464        -1.940272
 H        -3.568022        -0.616981         0.276563
 H        -2.118996        -0.516908         2.293226
 H        -4.071979         1.893441         1.301525
 H        -2.922802         2.353497         0.104130
 H        -5.610627         1.054840        -0.458570
 H        -3.166086         0.759218        -2.441855
 H        -5.149219         0.502394        -2.684316
