19
Iteration:  4803
 C         1.002635        -0.311571        -0.722494
 C        -0.366086        -0.256280        -0.230958
 C        -1.520885        -0.036021         0.046295
 C        -2.900484         0.294186         0.696869
 O        -2.849214         0.207629         2.104396
 C        -3.508529         1.657475         0.354558
 C        -4.455301         1.279287        -0.800288
 C        -4.279629         1.241267        -2.296375
 O        -5.016950         2.279173        -1.657383
 H         1.488036         0.648726        -0.574036
 H         1.595058        -1.157136        -0.193354
 H         0.873581        -0.556490        -1.792210
 H        -3.699237        -0.497303         0.605087
 H        -1.854216         0.098458         2.231772
 H        -4.201390         2.083445         1.156568
 H        -2.721647         2.397665         0.077667
 H        -5.121056         0.510252        -0.340632
 H        -3.369418         1.378102        -2.816020
 H        -4.785700         0.484914        -2.804786
