19
Iteration:   883charge 0 multiplicity 1
 C         1.379090         0.021474         0.514972
 C         0.094161        -0.024024        -0.170807
 C        -1.130475        -0.188338        -0.321226
 C        -2.559478        -0.082752        -0.239707
 O        -3.144387        -0.107649         1.108734
 C        -2.999031         1.248928        -0.741911
 C        -4.417883         1.621981        -0.323017
 C        -5.636520         1.241276        -1.263181
 O        -5.254452         2.613511        -1.163880
 H         1.381965         0.992210         1.101043
 H         1.374402        -0.845379         1.205755
 H         2.306068         0.067092        -0.115027
 H        -3.167871        -0.937959        -0.690105
 H        -2.406435        -0.335416         1.746807
 H        -2.229929         1.943624        -0.302190
 H        -2.898462         1.356660        -1.903294
 H        -4.736297         1.581881         0.644924
 H        -5.430957         0.778005        -2.174291
 H        -6.567249         0.842442        -0.848606
