19
Iteration:  3355charge 0 multiplicity 1
 C         1.511088         0.077439        -0.051786
 C         0.027656        -0.161932         0.180477
 C        -1.171519        -0.015745         0.029155
 C        -2.697075        -0.066308         0.124253
 O        -3.199110        -0.167199         1.453668
 C        -3.076598         1.381577        -0.453500
 C        -4.627432         1.611785        -0.520808
 C        -5.442503         1.134090        -1.633081
 O        -5.096251         2.566318        -1.518533
 H         2.255219         0.139658         0.791375
 H         1.834532        -0.755828        -0.609550
 H         1.741521         1.025092        -0.539736
 H        -3.088176        -0.761908        -0.624321
 H        -2.431218        -0.518029         1.924156
 H        -2.603136         2.173632         0.024508
 H        -2.692621         1.307817        -1.462696
 H        -5.022131         1.736521         0.528869
 H        -5.046738         0.464025        -2.383812
 H        -6.506874         0.868505        -1.446127
