19
Iteration:   814
 C         1.627691        -0.175865         0.085157
 C         0.154588         0.011844         0.248231
 C        -1.050311         0.107283         0.150648
 C        -2.520424         0.009213        -0.177885
 O        -3.264507        -0.295251         1.092664
 C        -3.040120         1.359059        -0.738947
 C        -4.660380         1.586655        -0.426421
 C        -5.686652         1.248992        -1.417836
 O        -5.261772         2.603102        -1.168530
 H         2.170103         0.798336        -0.032977
 H         2.165769        -0.689985         0.938422
 H         1.944863        -0.770005        -0.805796
 H        -2.540339        -0.692126        -1.048925
 H        -2.804588        -1.085877         1.437585
 H        -2.510182         2.109803        -0.064863
 H        -2.722457         1.616280        -1.753129
 H        -5.005390         1.662686         0.635729
 H        -5.470721         0.846740        -2.447415
 H        -6.705312         1.112678        -1.056114
