19
Iteration:  3998charge 0 multiplicity 1
 C         1.158788        -0.427476        -0.326241
 C        -0.216373        -0.024111        -0.128200
 C        -1.384925         0.209697        -0.004966
 C        -2.709465         0.284242         0.483663
 O        -2.628957         0.329106         2.019038
 C        -3.401803         1.553279         0.043559
 C        -4.569230         1.168401        -0.843863
 C        -4.710761         1.190550        -2.316880
 O        -5.348580         2.179815        -1.485980
 H         1.236364        -1.005758        -1.268577
 H         1.819803         0.444150        -0.471029
 H         1.604879        -1.063059         0.388955
 H        -3.276291        -0.631187         0.368432
 H        -2.578274        -0.509615         2.465061
 H        -3.857346         2.046280         0.883657
 H        -2.699380         2.423804        -0.254876
 H        -5.268373         0.362095        -0.360962
 H        -4.013597         1.538802        -3.148804
 H        -5.313745         0.406396        -2.742981
