19
Iteration:  3703charge 0 multiplicity 1
 C         1.426388        -0.037899        -0.057628
 C         0.030554        -0.221008        -0.003094
 C        -1.194213        -0.091859         0.090852
 C        -2.644670         0.088130         0.162296
 O        -3.177847         0.069549         1.530408
 C        -3.078893         1.498564        -0.397040
 C        -4.603034         1.664743        -0.522207
 C        -5.510071         1.000651        -1.491377
 O        -4.984231         2.351206        -1.759666
 H         2.085981        -0.958779        -0.074667
 H         1.774435         0.610294        -0.878723
 H         1.748961         0.468557         0.852492
 H        -3.161495        -0.745115        -0.316033
 H        -2.805271        -0.690305         2.092213
 H        -2.432150         2.256613         0.162101
 H        -2.786494         1.814618        -1.399650
 H        -5.095379         2.044214         0.387237
 H        -5.262216         0.105761        -2.022483
 H        -6.579165         1.140186        -1.266468
