19
Iteration:   681charge 0 multiplicity 1
 C         1.398514        -0.138939        -0.097563
 C        -0.056028        -0.120552        -0.404423
 C        -1.208052         0.095698        -0.115443
 C        -2.674510         0.159696         0.199739
 O        -3.050905        -0.274026         1.585404
 C        -3.298676         1.524128         0.002004
 C        -4.688681         1.423345        -0.467069
 C        -5.015735         1.259517        -1.979406
 O        -5.175760         2.539673        -1.251703
 H         1.875940         0.616872        -0.750750
 H         1.436712         0.174703         0.978614
 H         1.814802        -1.179621        -0.135469
 H        -3.057493        -0.465153        -0.647285
 H        -2.614790        -1.173058         1.693862
 H        -3.119769         2.192810         0.908671
 H        -2.605498         1.822308        -0.787481
 H        -5.397083         0.908720         0.202436
 H        -4.217492         1.151498        -2.742510
 H        -5.969587         0.865522        -2.446595
