19
Iteration:  2570charge 0 multiplicity 1
 C         1.244694        -0.109356        -0.454559
 C        -0.091081         0.121417        -0.006601
 C        -1.283719         0.014545         0.024753
 C        -2.719147         0.195334         0.422839
 O        -2.962222        -0.354808         1.774636
 C        -3.357284         1.507813        -0.019203
 C        -4.600645         1.171089        -0.800319
 C        -4.681096         1.498510        -2.167075
 O        -5.321385         2.377841        -1.234024
 H         1.096006        -0.643982        -1.430327
 H         1.854293         0.754013        -0.715844
 H         2.002799        -0.629262         0.182800
 H        -3.398580        -0.608676        -0.039980
 H        -2.679729         0.342413         2.421292
 H        -3.526951         2.141415         0.837249
 H        -2.680741         1.993146        -0.635490
 H        -5.228361         0.330319        -0.522261
 H        -3.717988         1.817185        -2.630156
 H        -5.325203         0.928083        -2.833708
