19
Iteration:  4626charge 0 multiplicity 1
 C         0.767073        -0.598850        -0.719179
 C        -0.548356        -0.180307        -0.342502
 C        -1.664503         0.053870         0.038326
 C        -2.829197         0.298280         0.884671
 O        -2.491211         0.546892         2.249053
 C        -3.731231         1.393722         0.374871
 C        -4.093498         1.110155        -1.142433
 C        -4.028144         2.034648        -2.253636
 O        -5.321710         1.727833        -1.622297
 H         1.336621         0.317618        -0.954420
 H         1.228510        -1.130250         0.197979
 H         0.637994        -1.334233        -1.566098
 H        -3.360473        -0.699989         0.845517
 H        -1.565881         0.197338         2.328854
 H        -4.765996         1.374159         0.765852
 H        -3.288422         2.377518         0.461454
 H        -4.049658         0.076046        -1.566430
 H        -3.683527         3.035459        -2.104962
 H        -3.943755         1.645651        -3.238362
