19
Iteration:  3950charge 0 multiplicity 1
 C         1.299648        -0.424126        -0.244675
 C        -0.109243        -0.216170        -0.235011
 C        -1.185086         0.133451         0.186360
 C        -2.715634         0.298447         0.449396
 O        -2.656391         0.371691         1.912791
 C        -3.544974         1.411895        -0.066473
 C        -4.754544         1.177415        -0.834466
 C        -4.675307         1.290388        -2.271796
 O        -5.513878         2.265307        -1.412093
 H         1.567430        -1.119678        -1.003085
 H         1.753819         0.546765        -0.445331
 H         1.562842        -0.799376         0.772981
 H        -3.158695        -0.662605         0.303742
 H        -1.715592         0.304997         2.323959
 H        -3.568852         2.211931         0.786007
 H        -2.970334         2.139907        -0.875857
 H        -5.462496         0.428436        -0.552927
 H        -3.758126         1.526926        -2.753671
 H        -5.307683         0.777188        -3.092067
