19
Iteration:  4737
 C         0.975235        -0.460660        -0.657804
 C        -0.299106        -0.139378        -0.258785
 C        -1.430784        -0.119879         0.197293
 C        -2.719501         0.147894         0.785423
 O        -2.730092         0.494709         2.239114
 C        -3.591986         1.302881         0.145569
 C        -4.586171         1.118328        -1.101543
 C        -4.300380         1.629818        -2.393856
 O        -5.215514         2.329452        -1.493830
 H         1.780520         0.223626        -0.723396
 H         1.628128        -1.234017        -0.077866
 H         1.015278        -1.008069        -1.619735
 H        -3.268974        -0.848106         0.634585
 H        -1.863742         0.321514         2.663540
 H        -4.373870         1.481454         0.917046
 H        -2.867506         2.102878         0.007096
 H        -5.355066         0.308256        -1.164523
 H        -3.353155         2.073412        -2.683437
 H        -4.777289         1.254067        -3.189915
