19
Iteration:  1252charge 0 multiplicity 1
 C         1.166811        -0.195991        -0.647967
 C        -0.196755         0.025875        -0.107690
 C        -1.388354        -0.003198         0.067486
 C        -2.827916         0.109393         0.472080
 O        -2.815853         0.006635         1.967338
 C        -3.452927         1.448437         0.066124
 C        -4.708740         1.245565        -0.736958
 C        -4.510434         1.298597        -2.170457
 O        -5.116482         2.487264        -1.398664
 H         1.400864        -1.226547        -0.805947
 H         1.305520         0.221713        -1.602089
 H         1.903145         0.185679         0.007772
 H        -3.314043        -0.897407         0.155345
 H        -2.670399        -0.884876         2.397503
 H        -3.637670         1.973393         1.020585
 H        -2.707452         2.006146        -0.541475
 H        -5.535196         0.664903        -0.329222
 H        -3.573445         1.743528        -2.606690
 H        -5.227305         0.772493        -2.825833
