19
Iteration:  3387
 C         1.468341         0.032236         0.246048
 C         0.039149        -0.047583        -0.123579
 C        -1.167073        -0.134506         0.032511
 C        -2.684725         0.002884        -0.003490
 O        -3.062467        -0.086120         1.371170
 C        -3.066474         1.449748        -0.545484
 C        -4.603742         1.655396        -0.478502
 C        -5.499054         1.069098        -1.424947
 O        -5.101395         2.475049        -1.538970
 H         1.533348        -0.340228         1.343216
 H         1.996302        -0.685266        -0.379141
 H         1.949335         0.976817        -0.052068
 H        -3.291129        -0.683081        -0.626781
 H        -3.454157        -0.964991         1.499133
 H        -2.560236         2.224748        -0.101577
 H        -2.864181         1.367929        -1.588396
 H        -4.902715         1.846339         0.575821
 H        -5.087217         0.370784        -2.176414
 H        -6.523087         0.937341        -0.989022
