19
Iteration:  2230charge 0 multiplicity 1
 C         1.395197        -0.412490         0.683640
 C         0.110247         0.125180         0.163060
 C        -1.044772         0.168111        -0.180162
 C        -2.486060         0.245062        -0.457608
 O        -3.032717        -0.063471         0.874331
 C        -3.060306         1.554553        -0.999340
 C        -4.466352         1.810843        -0.437001
 C        -5.625920         0.850121        -0.770783
 O        -5.466437         2.245069        -1.370425
 H         1.241216        -1.225189         1.416960
 H         2.017533        -0.803201        -0.102230
 H         1.948189         0.300076         1.272260
 H        -2.783494        -0.539551        -1.213915
 H        -2.272129         0.015233         1.461411
 H        -2.530192         2.504500        -0.648988
 H        -3.098656         1.478129        -2.074657
 H        -4.435450         2.056778         0.645761
 H        -5.521179         0.109885        -1.596941
 H        -6.446548         0.701830        -0.009619
