19
Iteration:  2538charge 0 multiplicity 1
 C         1.427035         0.041661        -0.366901
 C        -0.033495        -0.085224        -0.191567
 C        -1.212831         0.074616         0.185476
 C        -2.743313         0.012924         0.308951
 O        -3.109034        -0.251866         1.633696
 C        -3.324581         1.374057        -0.000617
 C        -4.692226         1.288752        -0.656380
 C        -4.862596         1.374361        -2.075988
 O        -5.215714         2.528854        -1.290091
 H         1.697136        -0.598663        -1.250932
 H         1.670416         1.082412        -0.750977
 H         1.987889        -0.347208         0.532429
 H        -3.070152        -0.929553        -0.209747
 H        -2.801724         0.422887         2.229007
 H        -3.347602         1.993142         0.853725
 H        -2.667742         1.727647        -0.672824
 H        -5.383465         0.584893        -0.211371
 H        -3.909655         1.484905        -2.674896
 H        -5.677886         0.764830        -2.504293
