19
Iteration:  4325
 C         0.473942        -0.214622        -1.158493
 C        -0.642208        -0.082449        -0.365248
 C        -1.638786         0.204312         0.228367
 C        -2.887350         0.235810         0.947741
 O        -2.571908         0.628745         2.395993
 C        -3.966169         1.116671         0.434254
 C        -4.454313         0.921935        -0.992304
 C        -3.643007         1.230503        -2.242391
 O        -4.658770         2.205239        -1.736434
 H         0.175234         0.478366        -2.050777
 H         1.293936         0.262595        -0.526181
 H         0.681774        -1.245100        -1.492109
 H        -3.288132        -0.794948         0.982943
 H        -1.681236         0.937884         2.225577
 H        -4.801190         1.032465         1.120545
 H        -3.729297         2.165546         0.728612
 H        -5.256049         0.262030        -1.119569
 H        -2.635615         1.543268        -2.167582
 H        -3.948607         0.673493        -3.193475
