19
Iteration:  3521
 C         1.458871        -0.419157         0.588767
 C         0.142736         0.086960         0.157367
 C        -1.072676         0.148278        -0.069214
 C        -2.432898         0.265109        -0.299885
 O        -3.260401        -0.001594         0.887155
 C        -2.990131         1.633779        -0.942815
 C        -4.454024         1.824884        -0.421855
 C        -5.621641         0.934777        -0.739238
 O        -5.333096         2.124943        -1.528138
 H         1.326008        -1.383403         1.221020
 H         2.011809        -0.752584        -0.344021
 H         2.140326         0.293775         1.202961
 H        -2.739180        -0.517640        -1.002860
 H        -3.224532        -0.937419         1.030140
 H        -2.495890         2.568724        -0.845023
 H        -3.108992         1.270719        -1.977797
 H        -4.592536         2.435824         0.536993
 H        -5.600593         0.037323        -1.412449
 H        -6.580561         0.919979        -0.192133
