19
Iteration:  3448charge 0 multiplicity 1
 C         1.432098        -0.156768         0.533206
 C         0.065183        -0.103261         0.169295
 C        -1.141119        -0.048577        -0.126978
 C        -2.619485         0.158808        -0.273981
 O        -2.882247        -0.139138         1.106882
 C        -3.094251         1.586262        -0.833644
 C        -4.507176         1.857194        -0.435938
 C        -5.563276         0.975260        -1.103255
 O        -5.325436         2.288489        -1.478623
 H         1.695934        -0.730338         1.378855
 H         1.829233        -0.762550        -0.333813
 H         1.923010         0.776034         0.706210
 H        -3.168116        -0.674369        -0.837260
 H        -3.783257         0.201235         1.366941
 H        -2.361503         2.457911        -0.477790
 H        -2.976292         1.620735        -1.970800
 H        -4.860344         2.309611         0.483273
 H        -5.293306         0.106405        -1.641024
 H        -6.532957         0.669166        -0.627383
