19
Iteration:  1822
 C         0.896817        -0.261482        -0.712885
 C        -0.498455         0.147546        -0.392929
 C        -1.699213         0.220943        -0.110029
 C        -2.836705         0.148584         0.780766
 O        -2.346984         0.121538         2.129515
 C        -3.972003         1.249221         0.438401
 C        -4.621411         1.064330        -0.862392
 C        -3.947988         1.512133        -2.127058
 O        -5.009092         2.215867        -1.755831
 H         1.587673         0.469012        -0.276475
 H         1.107480        -1.081588        -0.032210
 H         1.037526        -0.582490        -1.739940
 H        -3.046240        -0.867795         0.627889
 H        -2.225786         0.955130         2.543184
 H        -4.699457         1.038464         1.296382
 H        -3.518456         2.344570         0.630254
 H        -5.263767         0.187453        -0.860044
 H        -2.897458         2.027384        -2.119575
 H        -4.220782         0.734600        -2.953448
