19
Iteration:  4111charge 0 multiplicity 1
 C         0.978540        -0.128154        -0.893113
 C        -0.324472         0.002663        -0.167979
 C        -1.416728         0.163107         0.282832
 C        -2.821616         0.157571         0.828527
 O        -2.827552         0.240086         2.325832
 C        -3.404264         1.456966         0.083710
 C        -4.628727         1.295111        -0.849837
 C        -4.474098         0.999112        -2.237141
 O        -4.981387         2.247080        -1.829147
 H         0.814646        -0.318022        -1.970027
 H         1.590353         0.732770        -0.738754
 H         1.542042        -1.014099        -0.481781
 H        -3.466642        -0.595137         0.324766
 H        -2.226863        -0.486983         2.734526
 H        -3.360752         2.135190         0.950953
 H        -2.619790         1.876319        -0.438153
 H        -5.438241         0.747073        -0.227447
 H        -3.562713         1.071017        -2.703139
 H        -5.224654         0.306888        -2.682081
