19
Iteration:  1886
 C         1.112266        -0.200179        -0.746563
 C        -0.358649         0.057604        -0.375833
 C        -1.452075         0.266731         0.086975
 C        -2.760769         0.216999         0.700271
 O        -2.713375         0.045638         2.130336
 C        -3.754178         1.418073         0.333969
 C        -4.677542         1.217008        -0.806774
 C        -4.151584         1.257756        -2.183818
 O        -5.154955         2.213893        -1.670264
 H         1.791124         0.406102        -0.152051
 H         1.339666        -1.189388        -0.380891
 H         1.520276        -0.141519        -1.720808
 H        -3.268046        -0.705440         0.287885
 H        -2.064936        -0.648331         2.346950
 H        -4.466068         1.579837         1.177784
 H        -3.139105         2.373924         0.352411
 H        -5.437031         0.460345        -0.491133
 H        -3.196878         1.762981        -2.568219
 H        -4.670790         0.742580        -3.039886
