19
Iteration:  3421charge 0 multiplicity 1
 C         1.357220        -0.080619         0.429456
 C         0.062067        -0.033943         0.024159
 C        -1.125992        -0.005950        -0.306756
 C        -2.583710         0.028280        -0.140154
 O        -3.042231        -0.030774         1.256055
 C        -3.021010         1.432691        -0.601227
 C        -4.472496         1.679413        -0.440339
 C        -5.544730         1.015885        -1.188827
 O        -5.215109         2.396139        -1.541705
 H         1.460324        -0.587828         1.457012
 H         1.753417        -0.736798        -0.317377
 H         1.886205         0.916764         0.480768
 H        -3.114033        -0.812390        -0.618598
 H        -4.040652        -0.125455         1.274962
 H        -2.466203         2.135938        -0.108581
 H        -2.725302         1.576000        -1.621284
 H        -4.977256         2.000349         0.483098
 H        -5.230475         0.182063        -1.887966
 H        -6.469560         0.774679        -0.645450
