19
Iteration:   336
 C         1.573909        -0.156636         0.029594
 C         0.073656        -0.129047         0.088981
 C        -1.134945        -0.050315         0.066915
 C        -2.518615         0.209386        -0.207818
 O        -3.280381        -0.186242         1.037960
 C        -3.045550         1.605260        -0.311921
 C        -4.599397         1.560464        -0.391825
 C        -5.508887         1.089287        -1.450117
 O        -5.223886         2.489352        -1.242286
 H         1.954721        -0.785643        -0.790740
 H         1.917759         0.901051        -0.036799
 H         2.038006        -0.699624         0.879440
 H        -2.962877        -0.314769        -1.075726
 H        -2.939024        -1.096374         1.318163
 H        -2.639627         2.317502         0.429402
 H        -2.741190         2.031592        -1.352009
 H        -5.019308         1.471457         0.723365
 H        -5.081653         0.572306        -2.374756
 H        -6.542480         0.810095        -1.080632
