19
Iteration:   250
 C         1.566621        -0.264635         0.399587
 C         0.161869        -0.099111         0.065591
 C        -0.997243         0.176556        -0.163973
 C        -2.431499         0.122757        -0.274363
 O        -3.080837        -0.495213         0.842645
 C        -3.071052         1.550359        -0.526799
 C        -4.607144         1.678592        -0.341037
 C        -5.843751         1.252279        -1.114352
 O        -5.281261         2.512031        -1.302221
 H         1.985311        -1.248950         0.102698
 H         2.128090         0.546448        -0.122762
 H         1.762295        -0.154863         1.497108
 H        -2.586554        -0.578491        -1.165354
 H        -4.015044        -0.196295         0.746234
 H        -2.557094         2.213714         0.217937
 H        -2.704973         2.090112        -1.504744
 H        -4.879227         1.853244         0.733085
 H        -5.901053         0.498707        -2.011848
 H        -6.760929         1.291823        -0.432590
