19
Iteration:  4739
 C         0.971813        -0.463434        -0.659413
 C        -0.306085        -0.133809        -0.259162
 C        -1.402613        -0.115984         0.201273
 C        -2.744005         0.152152         0.792149
 O        -2.721713         0.478857         2.246531
 C        -3.595061         1.298439         0.112257
 C        -4.603461         1.132604        -1.090432
 C        -4.283363         1.618929        -2.394167
 O        -5.218408         2.335657        -1.496780
 H         1.778203         0.289700        -0.714010
 H         1.583347        -1.232045        -0.058580
 H         0.987741        -0.989325        -1.624813
 H        -3.308412        -0.799928         0.602884
 H        -1.805677         0.315348         2.731708
 H        -4.297235         1.471438         0.857720
 H        -2.811898         2.085828         0.013796
 H        -5.374389         0.322831        -1.088180
 H        -3.337581         2.086752        -2.623661
 H        -4.816695         1.159666        -3.240029
