19
Iteration:   126
 C         1.456103         0.019623         0.389526
 C         0.090882        -0.092154         0.060173
 C        -1.091075        -0.171486        -0.226021
 C        -2.561709         0.047489        -0.403441
 O        -3.338058        -0.373194         0.784985
 C        -2.949451         1.486036        -0.554416
 C        -4.497279         1.675888        -0.209952
 C        -5.556440         1.202501        -1.106088
 O        -5.192425         2.605902        -1.149283
 H         1.865649        -0.974885         0.670963
 H         2.025692         0.415955        -0.472557
 H         1.617521         0.695223         1.242875
 H        -2.988258        -0.477352        -1.305831
 H        -3.160120        -1.305697         0.873111
 H        -2.222611         2.091916         0.065068
 H        -2.781611         1.877879        -1.604441
 H        -4.764246         1.907113         0.894766
 H        -5.230917         0.608144        -1.968407
 H        -6.566693         1.016144        -0.717627
