19
Iteration:  3408
 C         1.433415        -0.046539         0.374297
 C         0.032263         0.015357        -0.089379
 C        -1.196714        -0.105834        -0.278391
 C        -2.577410         0.064100        -0.017624
 O        -3.104801        -0.052348         1.368469
 C        -3.006272         1.446397        -0.599849
 C        -4.527667         1.679258        -0.450041
 C        -5.550031         1.040016        -1.322118
 O        -5.143848         2.359755        -1.502587
 H         1.443688        -0.497324         1.465872
 H         2.126769        -0.729098        -0.180437
 H         1.968469         0.934885         0.334221
 H        -3.032014        -0.692396        -0.687126
 H        -3.909126        -0.517678         1.110589
 H        -2.541485         2.156156         0.024976
 H        -2.731600         1.555957        -1.628552
 H        -4.636431         2.025855         0.565896
 H        -5.367174         0.327565        -2.140131
 H        -6.622751         1.000214        -0.874445
