19
Iteration:   754
 C         1.484470        -0.200539         0.002053
 C         0.000360         0.004635         0.036108
 C        -1.178902         0.143154        -0.018775
 C        -2.617962         0.131550        -0.064542
 O        -3.160594        -0.323794         1.185900
 C        -3.100949         1.480171        -0.296209
 C        -4.631924         1.514860        -0.358998
 C        -5.278567         1.187915        -1.640356
 O        -5.215190         2.551111        -1.235873
 H         1.876373         0.670301        -0.481529
 H         1.839846        -0.283242         0.993692
 H         1.654622        -1.081443        -0.579361
 H        -3.019561        -0.534107        -0.858360
 H        -2.549688        -0.970746         1.517365
 H        -2.743773         2.070745         0.490293
 H        -2.787467         1.916173        -1.251678
 H        -5.328731         1.405648         0.414845
 H        -4.763254         0.922653        -2.543365
 H        -6.283506         0.705733        -1.551757
