19
Iteration:  3143charge 0 multiplicity 1
 C         1.264075        -0.202012        -0.406135
 C        -0.215458         0.093144        -0.209100
 C        -1.475191         0.120230        -0.123365
 C        -2.759715         0.165665         0.546609
 O        -2.637711        -0.113374         1.982446
 C        -3.595681         1.370267         0.233366
 C        -4.622887         1.090849        -0.915776
 C        -4.448198         1.607491        -2.297194
 O        -5.318733         2.259530        -1.400023
 H         1.879406         0.585273         0.017964
 H         1.431465        -1.198978         0.035658
 H         1.309331        -0.097686        -1.470730
 H        -3.374535        -0.654942         0.126257
 H        -3.046205         0.557679         2.563387
 H        -4.128688         1.782002         1.062248
 H        -2.974232         2.176465        -0.109495
 H        -5.180932         0.173637        -0.651379
 H        -3.362332         1.969563        -2.512829
 H        -5.004211         1.008992        -3.048401
