19
Iteration:  3530charge 0 multiplicity 1
 C         1.457991        -0.438619         0.538792
 C         0.127724         0.091148         0.241086
 C        -1.003547         0.221232        -0.111891
 C        -2.531862         0.251901        -0.333978
 O        -3.307314        -0.048330         0.941101
 C        -2.973021         1.608627        -0.962311
 C        -4.499724         1.854059        -0.433055
 C        -5.568554         0.899991        -0.742066
 O        -5.332120         2.149162        -1.526737
 H         1.369732        -1.422660         1.171246
 H         2.133380        -0.704120        -0.225150
 H         2.131502         0.259990         1.129323
 H        -2.774127        -0.535944        -1.048035
 H        -2.853598        -0.844500         1.175707
 H        -2.289264         2.364460        -0.852678
 H        -3.190392         1.450707        -2.029901
 H        -4.616865         2.561164         0.415833
 H        -5.364263        -0.055723        -1.323401
 H        -6.428094         1.055982        -0.162490
