19
Iteration:  2875
 C        -0.111877         0.378833        -1.725918
 C        -0.778932         0.282129        -0.507417
 C        -1.583405         0.164328         0.442234
 C        -2.893090        -0.017718         1.050510
 O        -2.942009         0.082969         2.518738
 C        -4.047655         0.851192         0.480694
 C        -3.969644         0.869298        -1.089368
 C        -3.045086         1.804840        -1.774708
 O        -4.530624         1.953921        -1.813393
 H        -0.844841         0.930090        -2.337582
 H         0.883213         0.756412        -1.615781
 H         0.090017        -0.662787        -2.061769
 H        -3.071970        -1.070209         0.651824
 H        -2.207093         0.691076         2.661008
 H        -5.020418         0.621053         0.896673
 H        -3.965547         1.972173         0.644871
 H        -4.131143        -0.104270        -1.612838
 H        -2.468409         2.384038        -1.102588
 H        -2.523258         1.478952        -2.629794
