19
Iteration:  1672
 C         0.274465         0.072795        -1.545043
 C        -0.806556        -0.081094        -0.495602
 C        -1.709579         0.042818         0.340239
 C        -2.929703         0.166485         1.068187
 O        -2.865777         0.341976         2.468485
 C        -3.732091         1.307011         0.425409
 C        -3.906761         0.954020        -0.999944
 C        -3.387373         1.858804        -2.005901
 O        -4.832811         1.708986        -1.707299
 H         0.064665         1.001059        -2.168772
 H         1.365970         0.121807        -1.201402
 H         0.192210        -0.806948        -2.274973
 H        -3.287596        -0.837176         0.785828
 H        -2.812022        -0.534560         2.816250
 H        -4.651757         1.338646         0.985772
 H        -3.284665         2.259462         0.629130
 H        -4.046798        -0.107726        -1.249843
 H        -2.942326         2.821603        -1.668889
 H        -3.036059         1.660746        -2.988710
