19
Iteration:  3526charge 0 multiplicity 1
 C         1.450873        -0.428467         0.570575
 C         0.145838         0.092756         0.206426
 C        -1.051865         0.189806        -0.099129
 C        -2.478693         0.248334        -0.319142
 O        -3.297227        -0.020123         0.921790
 C        -2.962468         1.631296        -0.966835
 C        -4.494703         1.843456        -0.414522
 C        -5.588938         0.902858        -0.736648
 O        -5.326961         2.136969        -1.529582
 H         1.399532        -1.322693         1.118277
 H         2.149566        -0.754061        -0.240049
 H         2.135275         0.173310         1.093931
 H        -2.779262        -0.557037        -1.038299
 H        -2.957569        -0.975142         1.057863
 H        -2.332411         2.603351        -0.822782
 H        -3.211908         1.258443        -1.971366
 H        -4.601571         2.479233         0.434323
 H        -5.509424         0.046925        -1.375730
 H        -6.547728         1.021740        -0.180099
