19
Iteration:   680
 C         1.394794        -0.142417        -0.103899
 C        -0.057808        -0.106761        -0.402683
 C        -1.203694         0.095021        -0.115088
 C        -2.670987         0.158193         0.202686
 O        -3.052553        -0.273461         1.585654
 C        -3.293921         1.530414         0.007990
 C        -4.701158         1.406438        -0.476107
 C        -5.013468         1.265103        -1.975864
 O        -5.164339         2.537250        -1.250936
 H         1.869790         0.596616        -0.740982
 H         1.446481         0.157965         0.947941
 H         1.792181        -1.161516        -0.123154
 H        -3.104361        -0.462778        -0.637592
 H        -2.620838        -1.179062         1.732327
 H        -3.138791         2.204529         0.852763
 H        -2.625424         1.790112        -0.773892
 H        -5.397496         0.909464         0.170251
 H        -4.210289         1.166991        -2.726904
 H        -5.984003         0.884849        -2.433835
