19
Iteration:  2135
 C         1.569488        -0.181113         0.139552
 C         0.109503        -0.079737         0.154709
 C        -1.088727         0.026684        -0.127399
 C        -2.612809         0.164053        -0.035005
 O        -3.103528         0.000990         1.342883
 C        -3.123543         1.523550        -0.541888
 C        -4.677830         1.713473        -0.470113
 C        -5.511721         0.961112        -1.390575
 O        -5.283784         2.316476        -1.529666
 H         2.019965        -0.505013         1.127224
 H         1.778218        -0.902412        -0.700672
 H         2.070014         0.826040         0.117674
 H        -2.955661        -0.700151        -0.608783
 H        -2.570878        -0.649813         1.915268
 H        -2.697686         2.260807         0.166716
 H        -2.705879         1.636256        -1.538247
 H        -5.105035         1.973410         0.535868
 H        -5.017502         0.360721        -2.157228
 H        -6.592747         0.684369        -1.370181
