19
Iteration:  3112
 C         1.100414        -0.208868        -0.487877
 C        -0.227478         0.038437        -0.181613
 C        -1.428943         0.245392         0.055074
 C        -2.762747         0.138668         0.571814
 O        -2.543340        -0.104123         1.993345
 C        -3.753228         1.314239         0.368979
 C        -4.651918         1.146520        -0.900112
 C        -4.317083         1.638837        -2.332177
 O        -5.370971         2.265908        -1.572868
 H         1.809619         0.625608        -0.310082
 H         1.490064        -1.169329        -0.135752
 H         1.257442        -0.343779        -1.558131
 H        -3.125823        -0.856593         0.136339
 H        -1.578186         0.018775         2.108441
 H        -4.417632         1.466075         1.374777
 H        -3.221143         2.281454         0.267442
 H        -5.162817         0.177835        -0.877317
 H        -3.221006         2.060057        -2.438067
 H        -4.710869         0.988386        -3.150229
