19
Iteration:  3372
 C         1.440440         0.028865         0.089049
 C        -0.001939        -0.097111         0.022354
 C        -1.184990        -0.083581         0.055921
 C        -2.595351         0.029456         0.037814
 O        -3.106490        -0.125051         1.414469
 C        -3.132848         1.318991        -0.544526
 C        -4.548630         1.697235        -0.429424
 C        -5.462650         1.113851        -1.522044
 O        -5.139407         2.500241        -1.551015
 H         1.772584        -0.015169         1.150082
 H         2.057665        -0.726617        -0.544474
 H         1.681529         1.076090        -0.183224
 H        -2.894376        -0.924943        -0.470681
 H        -2.958737        -1.000772         1.746051
 H        -2.516163         2.079511         0.109958
 H        -2.731579         1.548971        -1.558454
 H        -5.110448         1.973011         0.416738
 H        -4.963640         0.582741        -2.360422
 H        -6.567430         0.908819        -1.375394
