19
Iteration:   134
 C         1.464821         0.006565         0.410211
 C         0.015208        -0.000833         0.025263
 C        -1.161557        -0.202396        -0.253581
 C        -2.560820         0.039798        -0.404308
 O        -3.303402        -0.362353         0.789199
 C        -3.009360         1.524633        -0.585964
 C        -4.428969         1.675159        -0.181727
 C        -5.482803         1.210003        -1.092884
 O        -5.169366         2.549512        -1.138688
 H         1.766980        -1.008289         0.681707
 H         2.107171         0.376054        -0.368803
 H         1.631091         0.598007         1.311801
 H        -2.952256        -0.559987        -1.197094
 H        -3.538170        -1.292272         0.741549
 H        -2.316747         2.034472         0.074322
 H        -2.833444         1.878571        -1.548503
 H        -4.726466         1.955943         0.809533
 H        -5.208489         0.691473        -1.941380
 H        -6.401833         0.890233        -0.729791
