19
Iteration:  4788charge 0 multiplicity 1
 C         0.982164        -0.357123        -0.730307
 C        -0.419184        -0.231462        -0.118277
 C        -1.586354        -0.011754         0.055022
 C        -2.814095         0.281103         0.677244
 O        -2.785664         0.238909         2.183240
 C        -3.496148         1.581072         0.187846
 C        -4.458884         1.230178        -0.865035
 C        -4.281453         1.277919        -2.305356
 O        -5.063852         2.302469        -1.577148
 H         1.591487         0.549714        -0.604226
 H         1.688469        -1.037657        -0.300859
 H         1.092195        -0.655899        -1.789688
 H        -3.401767        -0.574198         0.299653
 H        -1.930231         0.176644         2.487036
 H        -4.161263         1.727379         1.146738
 H        -2.870650         2.443964        -0.068728
 H        -5.269036         0.553992        -0.653928
 H        -3.327701         1.821691        -2.683608
 H        -4.927484         0.691357        -3.062098
