19
Iteration:  4793
 C         1.023154        -0.342038        -0.746596
 C        -0.380044        -0.253644        -0.139657
 C        -1.614321        -0.020461         0.043777
 C        -2.874698         0.294712         0.669993
 O        -2.798297         0.229592         2.154349
 C        -3.503848         1.632609         0.247056
 C        -4.443923         1.221850        -0.857043
 C        -4.278759         1.254563        -2.293077
 O        -5.039532         2.290437        -1.608722
 H         1.522081         0.635789        -0.646100
 H         1.654065        -1.143545        -0.194488
 H         1.048187        -0.553092        -1.832612
 H        -3.549152        -0.455117         0.155327
 H        -1.898836         0.162803         2.665663
 H        -4.108479         1.850206         1.140753
 H        -2.760663         2.457323         0.215197
 H        -5.248475         0.511381        -0.529894
 H        -3.418448         1.689849        -2.677378
 H        -4.959855         0.669855        -2.844249
