19
Iteration:  4576
 C         0.713443        -0.614870        -1.082069
 C        -0.551872        -0.197955        -0.329547
 C        -1.560123         0.002973         0.311776
 C        -2.795663         0.260464         0.927809
 O        -2.672099         0.712487         2.357346
 C        -3.762466         1.329944         0.326176
 C        -4.062807         1.130020        -1.103925
 C        -3.966869         2.123408        -2.123068
 O        -5.216865         1.587615        -1.765002
 H         1.195366         0.238512        -1.494103
 H         1.357848        -1.057668        -0.370433
 H         0.418162        -1.343300        -1.783612
 H        -3.420270        -0.657874         0.848235
 H        -1.999217         0.293632         2.827584
 H        -4.695256         1.213036         0.823244
 H        -3.405713         2.393225         0.343787
 H        -3.878621         0.191579        -1.570930
 H        -3.907025         3.252242        -1.836844
 H        -3.598898         1.857005        -3.108396
