19
Iteration:  3415charge 0 multiplicity 1
 C         1.398042        -0.051545         0.443643
 C         0.018888        -0.021765        -0.042083
 C        -1.129259        -0.039439        -0.305401
 C        -2.536758         0.021409        -0.079268
 O        -3.085772        -0.037417         1.305326
 C        -3.022630         1.435589        -0.599135
 C        -4.499286         1.675218        -0.439463
 C        -5.553353         1.019349        -1.272472
 O        -5.187387         2.377879        -1.524267
 H         1.347648        -0.565437         1.356464
 H         1.808502        -0.717242        -0.399643
 H         1.918466         0.873861         0.290892
 H        -3.205796        -0.763622        -0.500122
 H        -3.970835        -0.297232         1.148656
 H        -2.480275         2.294793         0.053155
 H        -2.678978         1.551908        -1.680179
 H        -4.811812         2.013405         0.569297
 H        -5.219993         0.272626        -1.960395
 H        -6.430551         1.019130        -0.600464
