19
Iteration:  4861charge 0 multiplicity 1
 C         0.872403        -0.274019        -0.826558
 C        -0.405087         0.005068        -0.328522
 C        -1.548006         0.090821         0.083297
 C        -2.957746         0.212890         0.734032
 O        -2.829108         0.168699         2.151420
 C        -3.577762         1.578062         0.342803
 C        -4.644583         1.380437        -0.703086
 C        -4.247281         0.961051        -2.185439
 O        -4.627165         2.321636        -1.757116
 H         1.663537         0.508121        -0.549070
 H         1.277357        -1.186907        -0.389179
 H         1.028509        -0.422292        -1.899184
 H        -3.602332        -0.744185         0.483222
 H        -2.122034        -0.470680         2.308624
 H        -4.033043         2.027948         1.174584
 H        -2.754103         2.272861        -0.052055
 H        -5.632542         0.983244        -0.418576
 H        -3.262022         0.866541        -2.499732
 H        -5.148541         0.475510        -2.593141
