19
Iteration:  3589
 C         1.560276        -0.259914         0.497810
 C         0.099805        -0.203932         0.164487
 C        -1.047554        -0.024530        -0.145493
 C        -2.580058         0.289895        -0.148108
 O        -3.198482        -0.146463         1.008407
 C        -3.011407         1.696904        -0.792401
 C        -4.495768         1.865422        -0.549765
 C        -5.565197         0.929212        -0.804453
 O        -5.333766         2.201163        -1.648493
 H         1.725301        -1.251165         0.888480
 H         1.960120        -0.168880        -0.615187
 H         1.860197         0.541069         1.240320
 H        -2.939429        -0.405702        -0.915446
 H        -3.394652         0.528854         1.739158
 H        -2.396960         2.531693        -0.359852
 H        -2.887224         1.758003        -1.929849
 H        -4.847078         2.622360         0.184012
 H        -5.641348         0.014638        -1.353372
 H        -6.439499         1.017748        -0.067373
