19
Iteration:  3545charge 0 multiplicity 1
 C         1.474588        -0.431498         0.541253
 C         0.054775         0.032326         0.273946
 C        -1.052688         0.290759        -0.113135
 C        -2.519378         0.192600        -0.309613
 O        -3.252960        -0.104308         0.903904
 C        -3.099271         1.530817        -0.902252
 C        -4.405621         1.944533        -0.511641
 C        -5.462840         0.974080        -0.763211
 O        -5.415263         2.147605        -1.552047
 H         1.487062        -1.403159         1.048277
 H         1.916786        -0.577381        -0.537367
 H         2.106978         0.295617         1.148300
 H        -2.717482        -0.668674        -0.976518
 H        -2.567458        -0.331212         1.609065
 H        -2.533222         2.370522        -0.329583
 H        -2.920255         1.443108        -2.015336
 H        -4.469693         2.566235         0.410345
 H        -5.145254         0.065486        -1.262873
 H        -6.350816         0.742561        -0.075306
