19
Iteration:  2808charge 0 multiplicity 1
 C         0.373984         0.218218        -1.460682
 C        -0.738477         0.177334        -0.496145
 C        -1.604694         0.063348         0.297035
 C        -2.889417        -0.043428         1.028996
 O        -2.712002         0.195096         2.482600
 C        -4.027142         0.837601         0.370542
 C        -4.031021         0.959066        -1.151216
 C        -3.412876         1.976480        -1.946144
 O        -4.826140         2.040145        -1.661609
 H        -0.077951         0.387433        -2.473155
 H         1.166477         0.812720        -1.024322
 H         0.861667        -0.772800        -1.631584
 H        -3.243642        -1.090607         1.005271
 H        -3.303627        -0.420356         3.014617
 H        -4.982156         0.494047         0.770764
 H        -3.793813         1.794963         0.960435
 H        -4.047632        -0.042633        -1.707528
 H        -2.912154         2.797352        -1.547462
 H        -3.078899         1.607195        -2.924604
