19
Iteration:  3338
 C         1.485555         0.049108        -0.174216
 C         0.038231        -0.048647         0.197201
 C        -1.175906        -0.129983         0.161574
 C        -2.641103         0.082114         0.159557
 O        -3.212089        -0.264174         1.487523
 C        -3.129570         1.374790        -0.450942
 C        -4.637125         1.532180        -0.575166
 C        -5.417067         1.185220        -1.710503
 O        -5.022664         2.522415        -1.474594
 H         2.047308         0.149312         0.734024
 H         1.893628        -0.823417        -0.800857
 H         1.514387         0.939463        -0.854985
 H        -3.177786        -0.730973        -0.397043
 H        -2.699051         0.291221         2.126016
 H        -2.754535         2.213318         0.288173
 H        -2.756351         1.573109        -1.499315
 H        -5.092966         1.486222         0.433306
 H        -5.023246         0.861539        -2.708960
 H        -6.465901         0.956432        -1.551722
