19
Iteration:  4181
 C         0.789452         0.058741        -1.007225
 C        -0.434583        -0.093847        -0.238316
 C        -1.618781         0.074649         0.121572
 C        -2.876597         0.165190         0.802905
 O        -2.847637         0.357734         2.265910
 C        -3.458130         1.461820         0.269154
 C        -4.662664         1.251525        -0.748521
 C        -4.186043         0.891746        -2.074721
 O        -4.660513         2.189070        -1.851822
 H         0.495817         0.189732        -2.072287
 H         1.356246         0.981208        -0.573348
 H         1.439880        -0.883778        -0.869852
 H        -3.402284        -0.795543         0.639828
 H        -2.388348        -0.484188         2.634174
 H        -3.580831         2.118539         1.135159
 H        -2.789802         2.178702        -0.339852
 H        -5.595601         0.896435        -0.397353
 H        -3.111712         0.709218        -2.443022
 H        -4.908604         0.225184        -2.561174
