19
Iteration:  4394charge 0 multiplicity 1
 C         0.434935        -0.269338        -1.327534
 C        -0.751743        -0.104820        -0.444271
 C        -1.676278        -0.024275         0.378454
 C        -2.958479         0.173929         1.024833
 O        -2.584826         0.634572         2.477977
 C        -3.898445         1.358952         0.424525
 C        -4.106086         0.983967        -0.975817
 C        -3.530500         1.674681        -2.178786
 O        -4.917212         1.791494        -1.847842
 H         0.473761         0.476460        -2.206942
 H         1.382622        -0.150067        -0.830894
 H         0.535667        -1.261360        -1.832184
 H        -3.518396        -0.757182         1.172017
 H        -2.199138         1.579297         2.486938
 H        -4.796090         1.431633         1.075901
 H        -3.389596         2.217565         0.713372
 H        -4.382063        -0.053260        -1.198959
 H        -2.910659         2.572966        -1.923361
 H        -3.310660         1.195351        -3.070412
