19
Iteration:  4448
 C         0.373067        -0.351684        -1.382196
 C        -0.788336        -0.191380        -0.376826
 C        -1.698764         0.093822         0.423828
 C        -2.974409         0.228620         1.165940
 O        -2.607508         0.596975         2.450722
 C        -3.842868         1.403411         0.381729
 C        -3.903952         1.053258        -1.092141
 C        -3.563833         1.972449        -2.174963
 O        -4.977427         1.489547        -1.832487
 H         0.340435         0.604026        -2.085809
 H         1.283836        -0.374138        -0.798995
 H         0.244542        -1.250329        -2.046800
 H        -3.631300        -0.627065         1.332058
 H        -1.701349         0.980628         2.668479
 H        -4.818775         1.443581         0.928934
 H        -3.264560         2.284781         0.626469
 H        -3.588987         0.076560        -1.451815
 H        -3.500496         3.074694        -2.097661
 H        -3.204724         1.478396        -3.024429
