19
Iteration:   101charge 0 multiplicity 1
 C         1.571619         0.038225         0.298043
 C         0.119220        -0.327327         0.126788
 C        -1.050074        -0.053841        -0.064685
 C        -2.525381         0.075533        -0.297794
 O        -3.246284        -0.642948         0.762881
 C        -3.064209         1.521836        -0.582507
 C        -4.515608         1.703825        -0.358643
 C        -5.686725         1.341927        -1.168556
 O        -5.271814         2.671757        -1.168221
 H         2.178062        -0.793869         0.649691
 H         2.011753         0.376923        -0.620451
 H         1.606415         0.856587         1.017231
 H        -2.776314        -0.515980        -1.151872
 H        -2.837610        -0.332154         1.611858
 H        -2.574570         2.000500         0.264099
 H        -2.720964         1.984592        -1.443604
 H        -4.720464         1.921799         0.649265
 H        -5.589877         0.960694        -2.112084
 H        -6.475885         1.055637        -0.568879
