19
Iteration:  1789charge 0 multiplicity 1
 C         0.853241        -0.134544        -0.879354
 C        -0.567637        -0.114764        -0.500538
 C        -1.658282         0.099237         0.040936
 C        -2.872589         0.116988         0.800860
 O        -2.492363         0.323352         2.242157
 C        -4.001052         1.140733         0.420429
 C        -4.547115         1.019285        -0.962654
 C        -3.780207         1.600188        -2.142150
 O        -4.977686         2.204670        -1.611948
 H         1.311627         0.863583        -0.772145
 H         1.435383        -0.738652        -0.178592
 H         1.211121        -0.448084        -1.848595
 H        -3.263813        -0.893858         0.710261
 H        -1.997305         1.162481         2.359048
 H        -4.812794         0.963211         1.186527
 H        -3.664051         2.214021         0.735204
 H        -5.097185         0.115593        -1.206595
 H        -2.737485         2.063669        -1.978681
 H        -3.970602         1.117173        -3.146050
