19
Iteration:  2333
 C         1.441688        -0.107505         0.654952
 C         0.018303         0.045766         0.131666
 C        -1.108252         0.127609        -0.187541
 C        -2.624249         0.000232        -0.421820
 O        -3.186391        -0.150662         0.874459
 C        -2.894304         1.379944        -0.923419
 C        -4.343137         1.790416        -0.412215
 C        -5.579566         1.045206        -0.781140
 O        -5.422127         2.307990        -1.395880
 H         1.627715        -1.144418         0.829109
 H         2.178159         0.145277        -0.143652
 H         1.621942         0.645710         1.398985
 H        -2.861074        -0.882768        -1.143901
 H        -2.357971        -0.258741         1.345340
 H        -2.167495         2.238957        -0.592897
 H        -3.016070         1.545665        -2.063501
 H        -4.501857         2.341130         0.506252
 H        -5.601797         0.135595        -1.425201
 H        -6.120260         0.928888         0.142332
