19
Iteration:  2779
 C         0.561886         0.207729        -1.229244
 C        -0.648907         0.023384        -0.408302
 C        -1.658105        -0.041634         0.215795
 C        -2.986253        -0.084233         0.920505
 O        -2.525001         0.186746         2.284126
 C        -3.947790         0.945494         0.405135
 C        -4.158461         0.971376        -1.122220
 C        -3.595236         2.040250        -1.942016
 O        -4.958640         2.026916        -1.675629
 H         0.237518         0.467913        -2.227084
 H         1.248591         0.946161        -0.781903
 H         1.137369        -0.711998        -1.125208
 H        -3.462839        -1.068800         0.898939
 H        -3.354431         0.514292         2.748885
 H        -4.904533         0.729500         1.011639
 H        -3.449822         1.852775         0.891190
 H        -4.221238        -0.003520        -1.571061
 H        -3.094009         2.901349        -1.439727
 H        -3.183439         1.786623        -2.940885
