19
Iteration:   874charge 0 multiplicity 1
 C         1.469657         0.041083         0.462233
 C         0.050458        -0.099164        -0.060173
 C        -1.138560        -0.205890        -0.248912
 C        -2.591735        -0.049668        -0.237316
 O        -3.110490        -0.132043         1.077263
 C        -3.062886         1.339486        -0.804782
 C        -4.536754         1.582123        -0.353168
 C        -5.571494         1.214805        -1.285374
 O        -5.236552         2.633162        -1.141076
 H         1.526514         0.970811         1.021416
 H         1.577789        -0.708920         1.238144
 H         2.274535        -0.015190        -0.266477
 H        -3.018860        -0.871345        -0.786833
 H        -2.409455        -0.479352         1.700582
 H        -2.507011         2.132359        -0.331273
 H        -2.724397         1.222519        -1.861998
 H        -4.587695         1.669544         0.734327
 H        -5.596465         0.771976        -2.240223
 H        -6.407092         1.013983        -0.612220
