19
Iteration:  1870charge 0 multiplicity 1
 C         0.968233        -0.251866        -0.640209
 C        -0.350389         0.140814        -0.413931
 C        -1.478615         0.301840        -0.033573
 C        -2.839758         0.259256         0.636428
 O        -2.685236         0.056346         2.084457
 C        -3.751842         1.437330         0.453882
 C        -4.619953         1.031527        -0.824391
 C        -4.131692         1.317234        -2.207730
 O        -5.056572         2.197088        -1.595238
 H         1.691122         0.427057        -0.113526
 H         1.260964        -1.304466        -0.314981
 H         1.006859        -0.207933        -1.787174
 H        -3.383537        -0.632867         0.117718
 H        -1.697804        -0.072904         2.247361
 H        -4.264796         1.594491         1.391061
 H        -3.316389         2.347539         0.117875
 H        -5.397078         0.271608        -0.784057
 H        -3.138758         1.655606        -2.093885
 H        -4.436431         0.634206        -2.981182
