19
Iteration:  1566charge 0 multiplicity 1
 C         0.200784        -0.014665        -1.650992
 C        -0.695765        -0.073724        -0.480043
 C        -1.545810         0.061956         0.331112
 C        -2.933049         0.051959         1.156072
 O        -2.885096         0.495070         2.489164
 C        -3.911221         0.956837         0.428421
 C        -4.017357         0.856398        -1.131489
 C        -3.314281         1.881667        -1.830128
 O        -4.722288         1.993206        -1.739310
 H        -0.411128         0.309276        -2.428720
 H         0.993354         0.664120        -1.621290
 H         0.555727        -0.960727        -1.965780
 H        -3.208659        -1.019717         1.257914
 H        -2.884935         1.438316         2.415208
 H        -4.942214         0.616048         0.787434
 H        -3.694411         1.970744         0.747128
 H        -4.229995        -0.094066        -1.639721
 H        -2.714383         2.626494        -1.328147
 H        -3.121832         1.579313        -2.804081
