19
Iteration:  1706
 C         0.419317         0.080704        -1.420925
 C        -0.684177        -0.108449        -0.383868
 C        -1.638840        -0.112158         0.430057
 C        -2.847174         0.026811         1.085147
 O        -2.719669         0.431635         2.476616
 C        -3.786731         1.085778         0.403761
 C        -4.113549         1.039681        -1.136478
 C        -3.524381         1.861644        -2.250854
 O        -4.936145         1.985058        -1.693202
 H         0.350103         1.105571        -1.855457
 H         1.453021        -0.052449        -0.993514
 H         0.156364        -0.693955        -2.216547
 H        -3.380371        -0.941638         1.138480
 H        -2.723794        -0.316183         3.070735
 H        -4.790262         1.050221         0.839179
 H        -3.308398         1.983338         0.656803
 H        -4.520934         0.036497        -1.356876
 H        -3.121033         2.800566        -2.008924
 H        -3.494927         1.464014        -3.241340
