19
Iteration:  1790charge 0 multiplicity 1
 C         0.855982        -0.140068        -0.871709
 C        -0.570142        -0.108809        -0.503543
 C        -1.660418         0.099276         0.041650
 C        -2.875842         0.119858         0.795182
 O        -2.482719         0.318058         2.244963
 C        -4.004987         1.144821         0.426696
 C        -4.552661         1.020634        -0.963795
 C        -3.771628         1.590949        -2.145796
 O        -4.986313         2.209976        -1.617644
 H         1.337410         0.859848        -0.757329
 H         1.465693        -0.738457        -0.172605
 H         1.218506        -0.449453        -1.867155
 H        -3.242662        -0.936603         0.679653
 H        -2.000167         1.183265         2.385612
 H        -4.789038         0.974872         1.192042
 H        -3.679128         2.202035         0.758011
 H        -5.095750         0.119546        -1.186231
 H        -2.753314         2.065616        -1.994654
 H        -3.990653         1.143806        -3.144834
