19
Iteration:   844
 C         1.494841        -0.012151         0.224129
 C         0.021548        -0.209619         0.356488
 C        -1.078231        -0.028750        -0.101485
 C        -2.520773         0.041853        -0.253521
 O        -3.084174        -0.220445         1.078661
 C        -3.018718         1.383889        -0.819843
 C        -4.593083         1.573137        -0.389069
 C        -5.684326         1.278749        -1.347518
 O        -5.259708         2.572987        -1.145239
 H         1.702141         1.021478         0.424651
 H         2.134765        -0.571475         0.917813
 H         1.889205        -0.316519        -0.737418
 H        -2.802033        -0.762006        -1.033608
 H        -2.585878        -0.942341         1.465178
 H        -2.432565         2.208856        -0.431933
 H        -2.849605         1.337894        -1.869209
 H        -4.703020         1.705246         0.789613
 H        -5.624463         0.801023        -2.410136
 H        -6.681501         1.147798        -0.819220
