19
Iteration:    49
 C         1.570798        -0.183891         0.149852
 C         0.133260         0.265260         0.081963
 C        -1.094498         0.174762        -0.062853
 C        -2.541399        -0.080275        -0.214326
 O        -3.175278        -0.738117         1.010841
 C        -3.148387         1.364635        -0.482284
 C        -4.696066         1.523562        -0.287170
 C        -5.570925         1.450633        -1.405544
 O        -5.110366         2.798274        -1.125191
 H         1.618913        -1.211674         0.560498
 H         1.985488        -0.341258        -0.855131
 H         2.242310         0.544276         0.621045
 H        -2.656527        -0.825897        -1.069922
 H        -3.971645        -1.111515         0.534122
 H        -2.621897         2.028489         0.216686
 H        -3.075490         1.617253        -1.532821
 H        -5.015054         1.463761         0.768628
 H        -5.143302         0.967839        -2.267936
 H        -6.615835         1.329779        -1.237337
