19
Iteration:  1399
 C         0.773927        -0.084768        -0.984314
 C        -0.644716        -0.023599        -0.383305
 C        -1.698573         0.026006         0.153825
 C        -2.885777        -0.009187         0.900702
 O        -2.533774         0.157244         2.338231
 C        -3.786075         1.231062         0.412557
 C        -4.280981         1.052243        -1.044937
 C        -3.911154         1.781821        -2.318258
 O        -5.014042         2.157832        -1.572809
 H         0.814162        -0.654568        -1.869466
 H         1.109413         0.822075        -1.406801
 H         1.433632        -0.620986        -0.340996
 H        -3.478342        -0.947048         0.768939
 H        -1.938117         0.896167         2.319775
 H        -4.738426         1.247958         1.004057
 H        -3.328630         2.198230         0.712230
 H        -4.721995         0.039876        -1.246914
 H        -3.183116         2.600690        -2.398890
 H        -3.990956         1.280127        -3.336177
