19
Iteration:  2265charge 0 multiplicity 1
 C         1.438318        -0.324587         0.764317
 C         0.084728        -0.096152         0.307869
 C        -0.976313         0.266496        -0.309284
 C        -2.398499         0.209553        -0.484341
 O        -3.006865        -0.015182         0.776705
 C        -3.026236         1.490480        -1.006591
 C        -4.521208         1.843567        -0.510220
 C        -5.738652         0.944140        -0.648064
 O        -5.529526         2.225150        -1.340521
 H         1.461393        -1.269641         1.236570
 H         2.081431        -0.404097        -0.089827
 H         1.823959         0.535608         1.298168
 H        -2.609051        -0.767436        -1.064577
 H        -2.756082        -0.838758         1.176067
 H        -2.115023         2.212861        -0.801375
 H        -2.938014         1.450542        -2.111349
 H        -4.489634         2.353676         0.496307
 H        -5.675131         0.150304        -1.404179
 H        -6.551387         0.819030         0.156030
