19
Iteration:  1077
 C         1.510618        -0.140415        -0.288082
 C         0.109393        -0.160510         0.150871
 C        -1.116596         0.073137         0.301042
 C        -2.644604         0.117336         0.096712
 O        -3.349859        -0.275651         1.297390
 C        -3.037930         1.519704        -0.343336
 C        -4.503970         1.649311        -0.552707
 C        -5.360192         1.084178        -1.606084
 O        -5.254617         2.519365        -1.417061
 H         2.052894        -0.584948         0.537355
 H         1.656802        -0.672469        -1.208463
 H         1.920129         0.856165        -0.387616
 H        -2.913414        -0.523124        -0.668836
 H        -2.812643         0.026806         2.084658
 H        -2.829426         2.307513         0.323235
 H        -2.646620         1.809926        -1.277429
 H        -4.930339         1.523157         0.474091
 H        -4.939333         0.584223        -2.501020
 H        -6.371862         0.652286        -1.300797
