19
Iteration:   661
 C         1.389701        -0.181540        -0.223718
 C        -0.089460         0.130174        -0.265871
 C        -1.288015         0.050030        -0.044720
 C        -2.687937         0.103981         0.291972
 O        -3.039072        -0.240977         1.608259
 C        -3.349344         1.449802        -0.123607
 C        -4.717092         1.272035        -0.507082
 C        -4.977236         1.353213        -2.015419
 O        -5.042858         2.549502        -1.215965
 H         2.026242         0.301790        -1.033646
 H         1.797505         0.098840         0.811540
 H         1.454815        -1.304734        -0.437799
 H        -3.007565        -0.685460        -0.412848
 H        -2.505601        -1.071093         1.719846
 H        -3.323992         1.998267         0.933857
 H        -2.898285         2.158482        -0.904243
 H        -5.574009         0.955396         0.165903
 H        -4.154141         1.203622        -2.736725
 H        -5.866855         0.879131        -2.449266
