19
Iteration:  4757
 C         1.060407        -0.462213        -0.729996
 C        -0.399900        -0.123784        -0.206804
 C        -1.473917         0.001431         0.296519
 C        -2.846921         0.125738         0.773228
 O        -2.698417         0.368076         2.207640
 C        -3.555036         1.379481         0.116109
 C        -4.591765         1.112548        -0.967724
 C        -4.315938         1.547910        -2.358985
 O        -5.161381         2.351224        -1.583435
 H         1.733685         0.378478        -0.685927
 H         1.609656        -1.198191        -0.058185
 H         1.163359        -0.911081        -1.741247
 H        -3.375773        -0.853247         0.751307
 H        -1.668323         0.167300         2.178673
 H        -4.014673         2.048205         0.973757
 H        -2.908730         1.998134        -0.497162
 H        -5.371337         0.345716        -0.849337
 H        -3.300991         1.982219        -2.564615
 H        -4.634364         1.165271        -3.277221
