19
Iteration:   164
 C         1.224340        -0.061665         0.455987
 C        -0.098922         0.136314        -0.057071
 C        -1.252893         0.004496        -0.363946
 C        -2.601735         0.082474        -0.364058
 O        -3.226749        -0.570381         0.856786
 C        -2.838911         1.529952        -0.626877
 C        -4.292076         1.767061        -0.218905
 C        -5.327814         1.063128        -1.050882
 O        -5.213205         2.526282        -1.105371
 H         1.420368        -1.139105         0.492292
 H         2.040816         0.327598        -0.167567
 H         1.303630         0.417524         1.453365
 H        -2.922965        -0.591634        -1.210601
 H        -3.907688         0.106667         1.053626
 H        -2.157419         2.106459         0.034282
 H        -2.728591         1.607176        -1.723925
 H        -4.519602         2.025016         0.752837
 H        -4.924267         0.573966        -2.005282
 H        -6.305002         0.597990        -0.746207
