19
Iteration:  4276charge 0 multiplicity 1
 C         0.744774        -0.097698        -1.147509
 C        -0.675912         0.062690        -0.450152
 C        -1.694900         0.013105         0.204586
 C        -2.905182         0.288380         0.903576
 O        -2.625759         0.451494         2.293470
 C        -3.892052         1.372239         0.407994
 C        -4.684066         1.101683        -0.851970
 C        -3.768304         0.983316        -2.086539
 O        -4.557682         2.159727        -1.812643
 H         0.742537         0.229546        -2.122889
 H         1.474837         0.349882        -0.529021
 H         0.883075        -1.179329        -1.094034
 H        -3.538033        -0.621674         0.949029
 H        -1.665596         0.421882         2.497038
 H        -4.613059         1.478571         1.259449
 H        -3.498886         2.374469         0.469675
 H        -5.728015         0.574099        -0.801405
 H        -2.644316         1.045120        -1.814611
 H        -3.948411         0.466520        -2.994140
