19
Iteration:  3915charge 0 multiplicity 1
 C         1.318905        -0.374749        -0.286182
 C        -0.092291        -0.172637        -0.082289
 C        -1.277327         0.054113        -0.016488
 C        -2.665036         0.290103         0.515609
 O        -2.760287         0.297776         2.052837
 C        -3.395375         1.471827        -0.089173
 C        -4.632076         1.121968        -0.937190
 C        -4.893431         1.326310        -2.378338
 O        -5.423185         2.271388        -1.367283
 H         1.568058        -1.225567        -0.975333
 H         1.871265         0.471758        -0.608002
 H         1.880334        -0.693778         0.682927
 H        -3.352288        -0.541258         0.332166
 H        -1.927660         0.824990         2.339427
 H        -3.843379         2.205618         0.673726
 H        -2.641488         1.978748        -0.736248
 H        -5.192721         0.416351        -0.345327
 H        -4.075699         1.648562        -3.031387
 H        -5.712604         0.802055        -2.735428
