19
Iteration:   831
 C         1.523780        -0.074142         0.153513
 C         0.083913        -0.157613         0.382394
 C        -1.025202         0.057618         0.001331
 C        -2.478390         0.011683        -0.197863
 O        -3.126082        -0.235594         1.021931
 C        -3.136956         1.345258        -0.706226
 C        -4.512201         1.534469        -0.496376
 C        -5.689680         1.251155        -1.316092
 O        -5.285433         2.683388        -1.185399
 H         1.827725         0.950970         0.104402
 H         2.083645        -0.605643         0.890642
 H         1.616322        -0.457777        -0.851733
 H        -2.781742        -0.823417        -0.892646
 H        -2.746245        -1.049987         1.433591
 H        -2.656343         2.176681        -0.253218
 H        -2.992281         1.413300        -1.798716
 H        -4.839087         1.486293         0.581395
 H        -5.449820         0.836691        -2.307490
 H        -6.657533         0.890097        -0.877799
