19
Iteration:   456charge 0 multiplicity 1
 C         1.514030        -0.033505        -0.288360
 C        -0.015615        -0.050699        -0.185349
 C        -1.213448         0.047022         0.121829
 C        -2.740041        -0.063301         0.296739
 O        -2.877911        -0.349258         1.647780
 C        -3.425863         1.392793        -0.141295
 C        -4.831275         1.478194        -0.552647
 C        -5.173892         1.338458        -1.938646
 O        -5.004308         2.599106        -1.403706
 H         1.853366        -0.050987        -1.318886
 H         1.923928         0.807478         0.267296
 H         1.888582        -1.010204         0.023850
 H        -2.997363        -0.815706        -0.529096
 H        -3.746134        -0.078565         1.919039
 H        -3.273371         2.077675         0.667016
 H        -2.673337         1.722148        -0.890415
 H        -5.674676         1.616281         0.286094
 H        -4.357058         1.055015        -2.623131
 H        -6.179252         0.961519        -2.184136
