19
Iteration:   307charge 0 multiplicity 1
 C         1.467368        -0.303005         0.084149
 C         0.034955         0.118983         0.188449
 C        -1.147463         0.245390         0.019554
 C        -2.556988         0.155931        -0.167464
 O        -3.232893        -0.522187         0.940497
 C        -3.061606         1.510338        -0.527198
 C        -4.470793         1.720912        -0.369053
 C        -5.411748         1.127200        -1.323487
 O        -5.323485         2.528693        -1.216106
 H         1.601691        -1.045988        -0.721424
 H         2.088600         0.557489        -0.175874
 H         1.878935        -0.693895         1.040111
 H        -2.856023        -0.464265        -1.029210
 H        -2.774467        -0.412232         1.792966
 H        -2.400017         2.243524        -0.013987
 H        -2.806479         1.459781        -1.615887
 H        -4.794936         1.714151         0.587581
 H        -4.923192         0.528216        -2.106450
 H        -6.364124         0.698257        -0.953510
