19
Iteration:  2033charge 0 multiplicity 1
 C         1.173591         0.126480        -0.613043
 C        -0.087210        -0.100331         0.127983
 C        -1.260385        -0.029864         0.330286
 C        -2.670387         0.086567         0.452934
 O        -3.020781        -0.013822         1.855856
 C        -3.197586         1.247489        -0.224706
 C        -4.618212         1.290520        -0.665730
 C        -5.026703         1.160273        -2.059025
 O        -4.984528         2.451461        -1.502323
 H         2.033882         0.364339        -0.044440
 H         1.474159        -0.572911        -1.370008
 H         0.958410         0.984523        -1.219473
 H        -3.154454        -0.790270        -0.018362
 H        -3.586258         0.738873         1.968621
 H        -2.976055         2.236546         0.301429
 H        -2.696647         1.401424        -1.183685
 H        -5.478460         1.188082        -0.031517
 H        -4.194409         0.835941        -2.718474
 H        -6.035471         0.823661        -2.238029
