19
Iteration:  1125
 C         1.460270        -0.176889        -0.167919
 C        -0.063001        -0.045443        -0.209300
 C        -1.301608         0.004678        -0.014810
 C        -2.764865         0.159795         0.224736
 O        -3.100696        -0.220707         1.550083
 C        -3.200375         1.525233        -0.146727
 C        -4.704627         1.498892        -0.439568
 C        -5.107523         1.067072        -1.768054
 O        -5.034332         2.525303        -1.502343
 H         1.887068        -0.930383         0.600139
 H         1.811362        -0.287277        -1.258535
 H         1.888390         0.849716         0.113843
 H        -3.249746        -0.580197        -0.513814
 H        -2.545220         0.228315         2.169979
 H        -3.104706         2.302044         0.669777
 H        -2.607690         1.917330        -1.070413
 H        -5.276646         1.477204         0.499448
 H        -4.417593         0.810917        -2.611047
 H        -6.042955         0.529098        -1.844365
