19
Iteration:  1555charge 0 multiplicity 1
 C         0.275216        -0.030511        -1.676060
 C        -0.685295        -0.044471        -0.573112
 C        -1.572051        -0.023774         0.361580
 C        -2.832974         0.021659         1.115532
 O        -2.939578         0.586320         2.484243
 C        -4.000499         0.888208         0.477127
 C        -4.103040         0.846079        -1.124846
 C        -3.227942         1.870165        -1.873901
 O        -4.760577         2.028051        -1.670819
 H        -0.146114         0.280664        -2.570485
 H         0.969290         0.673051        -1.347983
 H         0.802328        -0.945682        -1.780780
 H        -3.272020        -0.994292         1.180065
 H        -2.765761         1.553965         2.381775
 H        -4.987290         0.660543         1.016760
 H        -3.883014         1.941136         0.708507
 H        -4.242742        -0.151778        -1.578692
 H        -2.598046         2.584401        -1.347927
 H        -2.897996         1.826929        -2.860537
