19
Iteration:  3972charge 0 multiplicity 1
 C         1.263662        -0.433026        -0.312732
 C        -0.080249        -0.062614        -0.056279
 C        -1.340225         0.080725        -0.079967
 C        -2.706985         0.309068         0.497136
 O        -2.685462         0.386587         1.916342
 C        -3.489803         1.507608         0.020627
 C        -4.680012         1.102568        -0.821937
 C        -4.719218         1.293292        -2.278788
 O        -5.400981         2.189537        -1.445156
 H         1.444469        -1.181500        -1.051775
 H         2.055224         0.315580        -0.464890
 H         1.613263        -0.997610         0.618513
 H        -3.319579        -0.578087         0.344114
 H        -2.002179        -0.083388         2.349869
 H        -3.922432         2.191973         0.835316
 H        -2.802545         2.393970        -0.430626
 H        -5.411710         0.548259        -0.249639
 H        -3.883315         1.602572        -2.866805
 H        -5.352880         0.603755        -2.969842
