19
Iteration:  1286
 C         1.055683        -0.205254        -0.889329
 C        -0.220394         0.035080        -0.203982
 C        -1.368671         0.010989         0.311243
 C        -2.763751         0.109778         0.641320
 O        -2.980788        -0.021946         2.128894
 C        -3.344984         1.501787         0.159031
 C        -4.517580         1.205322        -0.859018
 C        -4.421377         1.450519        -2.272052
 O        -5.238463         2.366650        -1.448732
 H         1.146341        -1.219403        -1.190124
 H         1.180455         0.481957        -1.677436
 H         1.850021         0.009409        -0.224144
 H        -3.175705        -0.809099        -0.005111
 H        -2.691586        -0.953481         2.290638
 H        -3.873008         2.039471         0.951211
 H        -2.409467         2.073410        -0.089126
 H        -5.083508         0.385885        -0.430890
 H        -3.558995         2.009199        -2.825684
 H        -4.904807         0.770459        -3.038867
