19
Iteration:  2539
 C         1.420498         0.039717        -0.372152
 C        -0.041957        -0.085130        -0.181666
 C        -1.205760         0.075083         0.178514
 C        -2.746781         0.014814         0.316755
 O        -3.104112        -0.257405         1.635937
 C        -3.326787         1.383906        -0.001403
 C        -4.696811         1.283137        -0.659736
 C        -4.849651         1.381979        -2.081907
 O        -5.216531         2.517019        -1.283327
 H         1.678411        -0.590787        -1.251405
 H         1.724048         1.073038        -0.753328
 H         1.985102        -0.347343         0.517851
 H        -3.108004        -0.886509        -0.193910
 H        -2.794779         0.458735         2.209667
 H        -3.329088         1.998983         0.864189
 H        -2.676509         1.758085        -0.701237
 H        -5.401582         0.590820        -0.236025
 H        -3.894749         1.475324        -2.676529
 H        -5.688329         0.783488        -2.527637
