19
Iteration:   809charge 0 multiplicity 1
 C         1.657356        -0.196680         0.079820
 C         0.193364         0.050214         0.182539
 C        -1.066301         0.104251         0.172557
 C        -2.523683         0.003976        -0.118116
 O        -3.286542        -0.311791         1.071477
 C        -3.060818         1.397174        -0.682523
 C        -4.597029         1.574007        -0.439709
 C        -5.689275         1.263459        -1.439057
 O        -5.265332         2.574843        -1.166400
 H         2.203326         0.718639        -0.060876
 H         1.980563        -0.643242         1.003111
 H         1.872119        -0.792771        -0.799263
 H        -2.607978        -0.660158        -0.993455
 H        -2.861326        -1.057613         1.507963
 H        -2.600111         2.182978        -0.146508
 H        -2.907101         1.566293        -1.774192
 H        -5.040953         1.682769         0.567013
 H        -5.389204         0.817966        -2.390084
 H        -6.784482         1.218283        -1.196753
