19
Iteration:   519charge 0 multiplicity 1
 C         1.220053         0.029836        -0.509857
 C        -0.128761         0.041997        -0.026121
 C        -1.310404        -0.185799         0.146332
 C        -2.711608         0.028038         0.290183
 O        -3.055128        -0.154461         1.700103
 C        -3.169542         1.430610        -0.122061
 C        -4.539034         1.369312        -0.580131
 C        -4.833231         1.375792        -2.103585
 O        -5.198782         2.470099        -1.200438
 H         1.251919         0.294612        -1.599663
 H         1.914713         0.759115        -0.020048
 H         1.701183        -0.981952        -0.451383
 H        -3.241806        -0.781790        -0.172886
 H        -3.685259        -0.896271         1.695845
 H        -2.890984         2.042073         0.794894
 H        -2.453217         1.772913        -0.897775
 H        -5.236146         0.959987         0.134130
 H        -4.039747         1.588582        -2.802275
 H        -5.584212         0.711600        -2.528428
