19
Iteration:  1271charge 0 multiplicity 1
 C         1.046579        -0.189137        -0.750685
 C        -0.186787         0.054817        -0.128568
 C        -1.394959         0.041584         0.156109
 C        -2.734869         0.049965         0.641560
 O        -2.887567        -0.007538         2.024419
 C        -3.338763         1.417829         0.138359
 C        -4.577563         1.268974        -0.765860
 C        -4.469437         1.463225        -2.262301
 O        -5.216740         2.361404        -1.483172
 H         0.993494        -1.284127        -1.005416
 H         1.132005         0.343849        -1.754305
 H         1.969976         0.072876        -0.145247
 H        -3.446650        -0.629375         0.197477
 H        -2.852330        -0.987060         2.289202
 H        -3.488107         1.935804         1.098698
 H        -2.763349         1.948476        -0.567371
 H        -5.411222         0.613552        -0.454367
 H        -3.495556         1.703081        -2.453127
 H        -5.092612         0.936776        -2.924962
