19
Iteration:  3971
 C         1.265652        -0.431312        -0.308006
 C        -0.083643        -0.065987        -0.067731
 C        -1.342447         0.080739        -0.056648
 C        -2.699161         0.301808         0.489877
 O        -2.685085         0.389828         1.913697
 C        -3.488661         1.515291         0.011608
 C        -4.699539         1.097974        -0.821574
 C        -4.719132         1.297837        -2.275503
 O        -5.399770         2.190751        -1.446860
 H         1.487416        -1.195876        -1.060780
 H         2.055972         0.304340        -0.466991
 H         1.658244        -1.011914         0.642084
 H        -3.327628        -0.589933         0.317880
 H        -1.946336        -0.076064         2.325354
 H        -3.922345         2.195012         0.830297
 H        -2.828330         2.366746        -0.417248
 H        -5.398558         0.523935        -0.246485
 H        -3.878724         1.629388        -2.836482
 H        -5.338586         0.614321        -2.951567
