19
Iteration:  1292charge 0 multiplicity 1
 C         1.061848        -0.221705        -0.916419
 C        -0.257303         0.012746        -0.238801
 C        -1.311313         0.006772         0.356003
 C        -2.767338         0.120834         0.665779
 O        -3.022645        -0.017014         2.144163
 C        -3.402398         1.495766         0.163534
 C        -4.440459         1.249019        -0.868506
 C        -4.406166         1.489946        -2.306599
 O        -5.217327         2.305838        -1.429578
 H         1.191137        -1.249253        -1.387509
 H         1.142071         0.618954        -1.699847
 H         1.898192         0.102725        -0.204891
 H        -3.289153        -0.579572         0.076583
 H        -2.611586        -0.872492         2.160551
 H        -4.010313         1.979026         0.957545
 H        -2.603755         2.120524        -0.185038
 H        -5.023136         0.339019        -0.561460
 H        -3.577745         1.925840        -2.740583
 H        -4.997518         0.751957        -2.817329
