19
Iteration:  4453charge 0 multiplicity 1
 C         0.406284        -0.369606        -1.427037
 C        -0.781188        -0.147943        -0.390522
 C        -1.697969         0.020999         0.461287
 C        -2.978731         0.265711         1.133161
 O        -2.648574         0.631433         2.459324
 C        -3.835832         1.365472         0.413276
 C        -3.891346         1.105343        -1.099380
 C        -3.596858         1.975240        -2.149067
 O        -4.981452         1.479154        -1.832847
 H         0.442081         0.469583        -1.999454
 H         1.344873        -0.406631        -0.831011
 H         0.241401        -1.256702        -2.005179
 H        -3.582709        -0.666173         1.299747
 H        -1.703013         0.882048         2.484499
 H        -4.802307         1.394989         0.881383
 H        -3.190054         2.256055         0.630343
 H        -3.505100         0.034096        -1.327201
 H        -3.527600         3.047607        -2.102041
 H        -3.122675         1.474199        -3.067923
