19
Iteration:  3381
 C         1.457221         0.042756         0.199390
 C         0.001104        -0.075134        -0.094054
 C        -1.207039        -0.123585         0.061536
 C        -2.634167        -0.014256         0.034102
 O        -3.062654        -0.086063         1.386424
 C        -3.111908         1.398828        -0.547979
 C        -4.603088         1.680235        -0.457734
 C        -5.451189         1.094449        -1.470031
 O        -5.119774         2.486547        -1.543762
 H         1.761802        -0.190274         1.180191
 H         1.994410        -0.736010        -0.393805
 H         1.949227         1.003716        -0.019057
 H        -3.001725        -0.782841        -0.692558
 H        -3.244285        -1.015412         1.429465
 H        -2.524913         2.242660         0.022749
 H        -2.842926         1.460017        -1.658533
 H        -4.906684         1.911620         0.576465
 H        -5.224941         0.344765        -2.240556
 H        -6.446154         0.914488        -1.135835
