19
Iteration:  1608charge 0 multiplicity 1
 C         0.057807        -0.035938        -1.638698
 C        -0.858759         0.107323        -0.384663
 C        -1.674906         0.163035         0.451473
 C        -2.932843         0.109262         1.167985
 O        -2.708112         0.167052         2.597794
 C        -3.908228         1.134711         0.412995
 C        -3.822259         0.965774        -1.030416
 C        -3.340375         1.928805        -2.083900
 O        -4.732821         1.820395        -1.900287
 H        -0.450364         0.468232        -2.457713
 H         1.049575         0.371660        -1.588321
 H         0.066794        -1.108668        -1.873745
 H        -3.425892        -0.829846         1.096097
 H        -2.133096         0.958250         2.781201
 H        -5.013272         0.978448         0.663050
 H        -3.699434         2.172592         0.688535
 H        -3.864335        -0.107016        -1.286455
 H        -2.852105         2.857158        -1.659616
 H        -2.846196         1.543069        -2.968011
