19
Iteration:  2051charge 0 multiplicity 1
 C         1.342848         0.083328        -0.530872
 C        -0.025921         0.034901         0.066692
 C        -1.181504        -0.062026         0.325672
 C        -2.723768        -0.032300         0.435438
 O        -3.067007        -0.027001         1.831796
 C        -3.153023         1.350770        -0.338130
 C        -4.752019         1.420086        -0.596078
 C        -5.180927         1.055219        -2.018578
 O        -4.984755         2.479919        -1.513559
 H         2.143206        -0.060722         0.226145
 H         1.545071        -0.855104        -1.119312
 H         1.471606         0.927746        -1.235359
 H        -2.987962        -0.999498        -0.093294
 H        -3.824298         0.504232         1.991780
 H        -2.864184         2.162653         0.299002
 H        -2.523375         1.540553        -1.289809
 H        -5.434740         1.303650         0.268553
 H        -4.378313         0.956798        -2.725461
 H        -6.214809         0.667022        -2.261632
