19
Iteration:   246
 C         1.559966        -0.250500         0.410054
 C         0.164703        -0.140978         0.078886
 C        -0.966261         0.178912        -0.194348
 C        -2.458064         0.137285        -0.309319
 O        -3.082930        -0.490849         0.859302
 C        -3.075266         1.558239        -0.521843
 C        -4.590565         1.668215        -0.366508
 C        -5.868407         1.259108        -1.105758
 O        -5.268461         2.502136        -1.291140
 H         2.028422        -1.205293         0.155355
 H         2.056255         0.573951        -0.127340
 H         1.733884        -0.107771         1.470213
 H        -2.552413        -0.563862        -1.102014
 H        -3.991432        -0.218270         0.598334
 H        -2.657902         2.202625         0.249774
 H        -2.771837         2.110868        -1.392786
 H        -4.815447         1.866996         0.754314
 H        -5.844477         0.512203        -1.860823
 H        -6.744810         1.309437        -0.488126
