19
Iteration:  3853
 C         1.396419        -0.280086        -0.435705
 C        -0.047203        -0.148462        -0.084860
 C        -1.255232         0.019543         0.205408
 C        -2.744746         0.212159         0.536989
 O        -3.054444         0.312800         2.016733
 C        -3.254946         1.376883        -0.324557
 C        -4.643125         1.188943        -0.762714
 C        -4.823319         1.343974        -2.248049
 O        -5.368257         2.270218        -1.351016
 H         1.446303        -1.101728        -1.121783
 H         1.618687         0.665272        -1.004498
 H         1.981488        -0.396586         0.443040
 H        -3.164389        -0.747250         0.090320
 H        -2.176511         0.635499         2.448322
 H        -3.051684         2.372019         0.032121
 H        -2.410786         1.358174        -1.092199
 H        -5.343504         0.613224        -0.184570
 H        -3.955036         1.550887        -2.926096
 H        -5.724923         0.765502        -2.686540
