19
Iteration:  1895
 C         1.137550        -0.174264        -0.747496
 C        -0.259630         0.012919        -0.383277
 C        -1.386862         0.239899         0.151321
 C        -2.840886         0.177608         0.667395
 O        -2.715194         0.064885         2.197694
 C        -3.705787         1.414669         0.361337
 C        -4.626863         1.242276        -0.823045
 C        -4.235665         1.226535        -2.194292
 O        -5.194647         2.273868        -1.723745
 H         1.714910         0.526000        -0.111406
 H         1.564932        -1.190720        -0.542482
 H         1.207675         0.023559        -1.837322
 H        -3.372283        -0.731158         0.107372
 H        -2.417171        -0.862351         2.307121
 H        -4.312115         1.495706         1.265324
 H        -3.201509         2.324480         0.141409
 H        -5.464306         0.506824        -0.661621
 H        -3.370818         1.847578        -2.482148
 H        -4.764394         0.567933        -2.877078
