19
Iteration:  4150
 C         0.928881        -0.002940        -0.987080
 C        -0.397737        -0.034302        -0.348019
 C        -1.461018        -0.061806         0.352401
 C        -2.838893         0.209110         0.739142
 O        -2.954471         0.398767         2.210515
 C        -3.416415         1.520896         0.273209
 C        -4.633666         1.183087        -0.702965
 C        -4.368937         0.894194        -2.232164
 O        -4.702585         2.225054        -1.736559
 H         0.880646         0.079785        -2.107875
 H         1.496924         0.923291        -0.676421
 H         1.528159        -0.857054        -0.678252
 H        -3.513084        -0.666318         0.563154
 H        -2.473810        -0.295131         2.585641
 H        -3.996844         1.876120         1.110364
 H        -2.865507         2.313371        -0.392755
 H        -5.585104         0.734170        -0.458188
 H        -3.402502         0.582866        -2.749237
 H        -5.283427         0.432429        -2.633102
