19
Iteration:  2702
 C         0.989773        -0.066966        -0.644316
 C        -0.440861         0.066270        -0.433646
 C        -1.600993        -0.014875        -0.047088
 C        -2.789967         0.060380         0.739377
 O        -2.523004         0.026955         2.213377
 C        -3.868066         1.167202         0.341055
 C        -4.352549         1.019325        -1.109066
 C        -4.097600         2.031007        -2.165000
 O        -5.280641         2.101193        -1.490147
 H         1.162089         0.028611        -1.715520
 H         1.514923         0.821021        -0.308372
 H         1.314101        -1.045190        -0.217620
 H        -3.312461        -0.920670         0.545622
 H        -1.538278        -0.118439         2.256866
 H        -4.582645         0.972967         1.166727
 H        -3.380472         2.102313         0.491000
 H        -4.727555         0.059794        -1.413042
 H        -3.386723         2.845447        -2.057348
 H        -4.278647         1.642906        -3.217985
