19
Iteration:  2358charge 0 multiplicity 1
 C         1.403702         0.005653         0.454586
 C        -0.019313         0.080132         0.309798
 C        -1.106501        -0.184031        -0.228511
 C        -2.552641         0.116559        -0.315745
 O        -3.206120        -0.272225         0.964175
 C        -2.990855         1.424763        -0.936682
 C        -4.424143         1.821197        -0.422988
 C        -5.566797         1.032295        -0.824330
 O        -5.245326         2.363810        -1.427555
 H         1.758670        -1.094795         0.555655
 H         2.018075         0.547631        -0.358804
 H         1.580519         0.756788         1.270476
 H        -2.822919        -0.754530        -1.068944
 H        -2.441150        -0.099416         1.574313
 H        -2.449829         2.299017        -0.651407
 H        -3.022236         1.554069        -2.036355
 H        -4.548635         2.255790         0.588365
 H        -5.353826         0.200065        -1.457639
 H        -6.420277         0.896690        -0.193910
