19
Iteration:   119charge 0 multiplicity 1
 C         1.496999         0.028055         0.377330
 C         0.120941        -0.199809         0.088718
 C        -1.061630        -0.114205        -0.198328
 C        -2.578007         0.009660        -0.386772
 O        -3.346011        -0.413677         0.767837
 C        -2.911071         1.493284        -0.513963
 C        -4.526109         1.738589        -0.266879
 C        -5.629573         1.194330        -1.126829
 O        -5.208418         2.650799        -1.143873
 H         2.070582        -0.879627         0.609728
 H         1.990538         0.418383        -0.547412
 H         1.590013         0.827134         1.138354
 H        -2.813167        -0.543934        -1.335219
 H        -2.786486        -1.146805         1.092053
 H        -2.533950         2.258526         0.176718
 H        -2.815243         1.713602        -1.622097
 H        -4.695812         1.718105         0.814433
 H        -5.381287         0.518187        -2.044252
 H        -6.695193         1.115224        -0.698056
