19
Iteration:  2183charge 0 multiplicity 1
 C         1.471675        -0.289651         0.505706
 C         0.086595        -0.122689         0.007057
 C        -1.027801         0.152310        -0.215629
 C        -2.548432         0.274316        -0.193233
 O        -3.089719        -0.112001         1.087982
 C        -3.040578         1.658621        -0.769831
 C        -4.508890         1.748815        -0.466654
 C        -5.596320         0.809517        -1.109806
 O        -5.389459         2.295219        -1.390931
 H         1.524797        -0.847930         1.511070
 H         2.102624        -0.866025        -0.256794
 H         1.959965         0.680528         0.861849
 H        -2.864669        -0.538802        -0.802763
 H        -3.209384         0.563631         1.741930
 H        -2.510107         2.483875        -0.336806
 H        -2.942367         1.631054        -1.886297
 H        -4.661922         2.197918         0.506485
 H        -5.326218         0.046925        -1.863372
 H        -6.439918         0.534057        -0.481275
