19
Iteration:  2024charge 0 multiplicity 1
 C         1.137265         0.159258        -0.677264
 C        -0.107455        -0.147271         0.095263
 C        -1.285350        -0.033002         0.342459
 C        -2.742688         0.058828         0.520999
 O        -3.023928         0.013134         1.892082
 C        -3.175645         1.292417        -0.241694
 C        -4.638878         1.221307        -0.716691
 C        -4.970715         1.112007        -2.095772
 O        -4.942070         2.510785        -1.470877
 H         2.012111         0.499645        -0.035858
 H         1.598954        -0.584023        -1.436333
 H         0.723984         1.086314        -1.231649
 H        -3.076710        -0.806855        -0.010957
 H        -3.443621         0.792067         2.238454
 H        -3.064956         2.200639         0.441781
 H        -2.466621         1.428075        -1.011682
 H        -5.432433         0.991926         0.049431
 H        -4.153754         1.113779        -2.850962
 H        -5.825469         0.520294        -2.333756
