19
Iteration:  4968
 C         0.602138        -0.006207        -1.046178
 C        -0.752306         0.132928        -0.471882
 C        -1.875402         0.072146        -0.066585
 C        -3.031522         0.192459         0.865814
 O        -2.710545         0.089370         2.283468
 C        -3.809370         1.489165         0.533377
 C        -4.518924         1.446635        -0.756180
 C        -4.072149         0.761256        -1.993962
 O        -3.955293         2.193720        -1.892024
 H         1.366978         0.589445        -0.465355
 H         0.944177        -1.077939        -0.946382
 H         0.550046         0.220508        -2.122038
 H        -3.422734        -0.823106         0.678054
 H        -2.215305         0.899223         2.477874
 H        -4.458314         1.598887         1.461052
 H        -2.980262         2.335145         0.503879
 H        -5.585513         1.633903        -0.618293
 H        -3.156096         0.211705        -1.991796
 H        -4.861046         0.414460        -2.745021
