19
Iteration:   958
 C         1.440103         0.012852         0.455296
 C         0.049595        -0.208194         0.162167
 C        -1.096796        -0.191982        -0.340053
 C        -2.553402        -0.084766        -0.291929
 O        -2.938299        -0.280638         1.121809
 C        -3.120965         1.391631        -0.610405
 C        -4.545062         1.724093        -0.377731
 C        -5.680313         1.255017        -1.237407
 O        -5.283217         2.643184        -1.353937
 H         1.544343         0.710024         1.351220
 H         2.071083        -0.914824         0.481437
 H         1.909519         0.574122        -0.418429
 H        -3.118279        -0.869081        -0.948348
 H        -2.270641         0.282170         1.513893
 H        -2.538146         2.243306        -0.185149
 H        -2.874695         1.294009        -1.700004
 H        -4.804917         2.008382         0.565818
 H        -5.629725         0.612501        -2.120336
 H        -6.657428         1.061245        -0.697999
