19
Iteration:  3554
 C         1.397514        -0.380741         0.516096
 C         0.040196        -0.033173         0.271772
 C        -1.118224         0.268843        -0.060716
 C        -2.488933         0.145201        -0.282518
 O        -3.178388        -0.129444         0.886983
 C        -2.984457         1.544754        -0.839453
 C        -4.476133         1.957883        -0.529923
 C        -5.445387         0.962447        -0.759537
 O        -5.475122         2.159247        -1.573726
 H         1.567771        -1.434146         0.933269
 H         1.983730        -0.484811        -0.452875
 H         2.149358         0.325440         1.044121
 H        -2.642352        -0.642464        -1.021635
 H        -2.535108         0.091591         1.639625
 H        -2.292696         2.333017        -0.547577
 H        -2.817718         1.546884        -1.942580
 H        -4.556423         2.729472         0.312613
 H        -5.169291         0.171202        -1.455276
 H        -6.339734         0.896215        -0.074045
