19
Iteration:  4023
 C         1.206170        -0.393906        -0.427712
 C        -0.255216        -0.070929        -0.330938
 C        -1.306076         0.146179         0.189722
 C        -2.696232         0.387060         0.604878
 O        -2.684129         0.264082         2.082225
 C        -3.455070         1.634665         0.044457
 C        -4.703906         1.150968        -0.788874
 C        -4.605029         1.157076        -2.299745
 O        -5.335863         2.197144        -1.583704
 H         1.479025        -0.911899        -1.417120
 H         1.759743         0.541248        -0.422003
 H         1.606948        -1.063567         0.395734
 H        -3.251796        -0.551492         0.376263
 H        -2.692287        -0.675524         2.419082
 H        -3.755053         2.400557         0.753981
 H        -2.805696         2.109805        -0.563763
 H        -5.373030         0.297727        -0.438014
 H        -3.676503         1.438843        -2.764700
 H        -5.182743         0.509667        -2.941870
