19
Iteration:  4435charge 0 multiplicity 1
 C         0.242029        -0.279000        -1.261220
 C        -0.790841        -0.265687        -0.360957
 C        -1.737494         0.148563         0.281680
 C        -2.892231         0.301207         1.130568
 O        -2.563102         0.535866         2.549810
 C        -3.790400         1.373988         0.412565
 C        -3.888736         0.960141        -1.078726
 C        -3.616621         1.924922        -2.208506
 O        -4.952176         1.565389        -1.886000
 H         0.225333         0.645924        -1.986851
 H         1.256360        -0.299650        -0.820062
 H         0.196480        -1.204428        -1.867443
 H        -3.379110        -0.676032         1.054791
 H        -1.804729         1.081674         2.359442
 H        -4.842909         1.433530         0.751371
 H        -3.388274         2.442726         0.412940
 H        -3.783050        -0.080835        -1.136158
 H        -3.276086         2.971607        -1.894981
 H        -3.255000         1.671384        -3.188958
