19
Iteration:  4231charge 0 multiplicity 1
 C         0.699598        -0.005730        -0.984957
 C        -0.612784         0.034988        -0.420016
 C        -1.694424         0.054889         0.042777
 C        -2.925385         0.233170         0.902758
 O        -2.687527         0.265838         2.345596
 C        -3.627999         1.588666         0.511022
 C        -4.420021         1.241236        -0.809721
 C        -4.045668         0.840880        -2.186115
 O        -4.647843         2.109933        -1.924862
 H         0.586406         0.271220        -2.002164
 H         1.284012         0.684796        -0.476131
 H         1.126502        -0.987117        -0.932241
 H        -3.616084        -0.610440         0.761784
 H        -1.865948        -0.126795         2.620418
 H        -4.427621         2.073099         1.107758
 H        -3.114386         2.473853         0.320398
 H        -5.445507         0.843598        -0.418371
 H        -2.971212         0.947897        -2.340974
 H        -4.647012         0.155950        -2.770299
