19
Iteration:    90
 C         1.534071        -0.009395         0.247572
 C         0.139886        -0.249767         0.130269
 C        -1.051324        -0.041918         0.031116
 C        -2.508677         0.046996        -0.300372
 O        -3.137924        -0.746318         0.803814
 C        -3.034364         1.522542        -0.551360
 C        -4.557464         1.690391        -0.343329
 C        -5.707738         1.375628        -1.221525
 O        -5.303043         2.753608        -1.190199
 H         2.095265        -0.854350         0.646262
 H         1.932514         0.264692        -0.713986
 H         1.708699         0.821982         0.938042
 H        -2.677407        -0.513794        -1.196379
 H        -3.312620        -0.089748         1.480065
 H        -2.622280         2.312213         0.075053
 H        -2.772719         1.780182        -1.529143
 H        -4.835676         1.724013         0.676634
 H        -5.601936         0.819780        -2.086187
 H        -6.627104         1.182652        -0.769388
