19
Iteration:  1326
 C         0.903561        -0.185429        -1.030341
 C        -0.321774        -0.195939        -0.291498
 C        -1.277593         0.178715         0.341559
 C        -2.760637         0.192594         0.698265
 O        -3.140003         0.039478         2.147279
 C        -3.448079         1.422411         0.228616
 C        -4.309417         1.145562        -0.906662
 C        -4.215062         1.602554        -2.259864
 O        -5.187054         2.159112        -1.400703
 H         1.261456        -0.860753        -1.857183
 H         0.767149         0.831894        -1.533278
 H         1.765223        -0.069770        -0.290731
 H        -3.232725        -0.667904         0.257203
 H        -2.332047        -0.083798         2.678515
 H        -4.099651         1.742110         1.067575
 H        -2.868263         2.289382         0.023813
 H        -4.921349         0.238954        -0.807723
 H        -3.298636         2.017381        -2.505656
 H        -4.662306         1.047056        -3.049612
