19
Iteration:  3782
 C         1.294247        -0.166188        -0.464829
 C        -0.029099         0.057695         0.174697
 C        -1.216774        -0.052231         0.266576
 C        -2.641659         0.185095         0.394990
 O        -3.199210         0.185829         1.866672
 C        -3.098146         1.265593        -0.463316
 C        -4.542861         1.355862        -0.662366
 C        -5.186811         1.103839        -2.037537
 O        -5.096901         2.448124        -1.460399
 H         1.179514        -1.197687        -0.892417
 H         1.331472         0.553475        -1.231570
 H         2.048039        -0.109866         0.331784
 H        -3.152202        -0.652896        -0.040835
 H        -2.539726        -0.381028         2.408574
 H        -2.591528         2.240752         0.023930
 H        -2.636731         1.210896        -1.448702
 H        -5.292040         1.129594         0.126620
 H        -4.437401         1.107283        -2.782488
 H        -6.115846         0.568514        -2.211957
