19
Iteration:   421charge 0 multiplicity 1
 C         1.353103        -0.146484        -0.157520
 C        -0.122971         0.258685         0.026203
 C        -1.315652         0.002372        -0.150998
 C        -2.717084        -0.015605         0.169443
 O        -2.890715        -0.349648         1.509256
 C        -3.153575         1.451061        -0.201542
 C        -4.594314         1.499764        -0.452768
 C        -5.245219         1.219487        -1.830520
 O        -5.010384         2.533023        -1.365462
 H         1.507768        -0.234426        -1.228349
 H         2.144266         0.530560         0.199606
 H         1.529460        -1.056742         0.394999
 H        -3.427496        -0.661572        -0.417345
 H        -3.805298        -0.418930         1.749728
 H        -3.087294         2.213180         0.565994
 H        -2.770784         1.869414        -1.112320
 H        -5.299696         1.437373         0.492595
 H        -4.618157         1.034398        -2.680696
 H        -6.185535         0.716201        -1.827555
