19
Iteration:   554charge 0 multiplicity 1
 C         1.310149         0.028793        -0.586605
 C        -0.095945         0.005774        -0.210132
 C        -1.254669        -0.097000         0.211093
 C        -2.758800         0.031124         0.378280
 O        -3.354416        -0.057354         1.670277
 C        -3.170961         1.356013        -0.082690
 C        -4.508959         1.318553        -0.643369
 C        -4.727162         1.420417        -2.071729
 O        -5.157053         2.384127        -1.120071
 H         1.343680         0.411986        -1.610839
 H         1.896254         0.633407         0.135326
 H         1.644951        -1.024336        -0.557073
 H        -3.186264        -0.743326        -0.292612
 H        -2.830487        -0.774830         2.051554
 H        -3.010992         2.028434         0.776146
 H        -2.699485         1.759856        -1.009127
 H        -5.095253         0.691401         0.188933
 H        -3.873038         1.779215        -2.649112
 H        -5.536412         0.841434        -2.492473
