19
Iteration:    61
 C         1.603501        -0.142385         0.156301
 C         0.162123         0.136855         0.127650
 C        -1.047013         0.105801        -0.017563
 C        -2.539469        -0.013483        -0.242178
 O        -3.134730        -0.808676         0.956595
 C        -3.240856         1.348161        -0.544161
 C        -4.605711         1.674174        -0.272749
 C        -5.605261         1.450945        -1.366270
 O        -5.191612         2.765090        -1.144455
 H         1.736698        -1.104053         0.703422
 H         1.968334        -0.141435        -0.890393
 H         2.211591         0.522217         0.797359
 H        -2.740716        -0.656674        -1.170163
 H        -4.130467        -0.732127         0.979158
 H        -2.673982         2.152506         0.005431
 H        -2.844699         1.630193        -1.565956
 H        -5.060719         1.742919         0.770649
 H        -5.275911         0.945793        -2.315920
 H        -6.685268         1.207705        -1.140454
