19
Iteration:  3990
 C         1.195010        -0.454880        -0.280642
 C        -0.169781        -0.000090        -0.067100
 C        -1.404157         0.165663        -0.139619
 C        -2.660588         0.241250         0.506072
 O        -2.674952         0.388298         2.028999
 C        -3.425297         1.568939         0.068709
 C        -4.617407         1.170867        -0.867779
 C        -4.734103         1.180205        -2.313990
 O        -5.353604         2.202607        -1.465704
 H         1.195603        -1.001696        -1.310370
 H         1.822796         0.389200        -0.563138
 H         1.894576        -1.108118         0.366569
 H        -3.281753        -0.656457         0.172527
 H        -2.407419        -0.488124         2.200387
 H        -3.810964         2.014323         0.984595
 H        -2.795043         2.245867        -0.299808
 H        -4.994510         0.194527        -0.502141
 H        -3.978606         1.652359        -2.943919
 H        -5.388651         0.453265        -2.708857
