19
Iteration:    69charge 0 multiplicity 1
 C         1.594255        -0.108275         0.177264
 C         0.154362         0.033398         0.143851
 C        -1.065630         0.047581         0.008298
 C        -2.566188        -0.005156        -0.189740
 O        -3.076022        -0.804887         0.871467
 C        -3.139529         1.383506        -0.553284
 C        -4.649838         1.777147        -0.301607
 C        -5.684582         1.396885        -1.370022
 O        -5.205335         2.740472        -1.125159
 H         1.856248        -1.086256         0.607616
 H         2.041850        -0.061275        -0.803850
 H         2.065695         0.672171         0.790246
 H        -2.648751        -0.605926        -1.098324
 H        -3.970331        -0.398078         1.070682
 H        -2.601616         2.132241        -0.016452
 H        -3.005363         1.556733        -1.577369
 H        -4.920641         1.916486         0.740135
 H        -5.388471         1.060287        -2.291171
 H        -6.631324         1.128113        -1.081965
