19
Iteration:    40charge 0 multiplicity 1
 C         1.480177        -0.186182         0.111719
 C         0.103755         0.294187         0.029048
 C        -1.102785         0.171773        -0.067253
 C        -2.545567        -0.070045        -0.128850
 O        -3.177364        -0.647133         0.968126
 C        -3.123567         1.309501        -0.423348
 C        -4.658512         1.506056        -0.273733
 C        -5.595914         1.441982        -1.502236
 O        -5.029318         2.742617        -1.048848
 H         1.518615        -1.095733         0.745664
 H         1.867155        -0.318875        -0.925154
 H         2.171119         0.475404         0.669197
 H        -2.659773        -0.770695        -1.017954
 H        -3.650928        -1.425260         0.592070
 H        -2.642630         2.108145         0.223777
 H        -2.812392         1.727701        -1.466416
 H        -5.210474         1.485250         0.724079
 H        -5.238256         1.101184        -2.553186
 H        -6.714510         1.178160        -1.379406
