19
Iteration:  2564
 C         1.270709        -0.107884        -0.444222
 C        -0.050297         0.100471        -0.014628
 C        -1.319160        -0.011265         0.025688
 C        -2.679753         0.210610         0.364055
 O        -2.994391        -0.353209         1.780436
 C        -3.368942         1.501836        -0.050394
 C        -4.653936         1.192795        -0.739791
 C        -4.703102         1.462598        -2.185103
 O        -5.270330         2.383935        -1.221829
 H         1.283816        -0.541030        -1.437351
 H         1.695059         0.910519        -0.744886
 H         1.956309        -0.530800         0.283983
 H        -3.183311        -0.648508        -0.002685
 H        -2.833532         0.283749         2.461156
 H        -3.638420         2.149172         0.830423
 H        -2.584529         2.009087        -0.794312
 H        -5.265818         0.405439        -0.243806
 H        -3.761870         1.871567        -2.524698
 H        -5.378889         0.991430        -2.952846
