19
Iteration:  1428charge 0 multiplicity 1
 C         0.746123        -0.045871        -0.981302
 C        -0.728096        -0.162911        -0.571581
 C        -1.769008        -0.025547        -0.019811
 C        -2.870509         0.114552         0.858047
 O        -2.520151         0.319880         2.280416
 C        -3.962564         1.164119         0.458706
 C        -4.388892         0.960837        -1.034739
 C        -3.612458         1.756687        -2.027584
 O        -4.945919         2.102487        -1.554872
 H         1.065320        -0.429060        -2.021847
 H         1.009911         1.069831        -0.946689
 H         1.428907        -0.515811        -0.230774
 H        -3.345901        -0.849225         0.796153
 H        -2.020059         1.169055         2.431853
 H        -4.858989         0.990652         1.044807
 H        -3.638139         2.246462         0.587293
 H        -4.682151         0.003356        -1.464450
 H        -2.917673         2.526838        -1.600645
 H        -3.549308         1.470120        -3.107126
