19
Iteration:   504
 C         1.343671         0.032643        -0.491978
 C        -0.081599        -0.091858        -0.050983
 C        -1.287563        -0.061216         0.191413
 C        -2.766308        -0.027342         0.306485
 O        -2.963812        -0.247531         1.729004
 C        -3.133878         1.428590        -0.051690
 C        -4.608231         1.402666        -0.661284
 C        -4.990685         1.341549        -2.065673
 O        -5.194381         2.578583        -1.306081
 H         1.392346         0.308807        -1.579531
 H         1.734462         0.856933         0.105619
 H         1.952786        -0.894774        -0.401857
 H        -3.276071        -0.676184        -0.467724
 H        -3.859238        -0.656411         1.956977
 H        -3.192927         2.054757         0.870972
 H        -2.447520         1.937335        -0.731952
 H        -5.274096         0.774441        -0.136716
 H        -4.238273         1.448213        -2.897576
 H        -5.953940         0.842699        -2.319161
