19
Iteration:  2835
 C         0.208818         0.228475        -1.651191
 C        -0.763890         0.252997        -0.580697
 C        -1.596884         0.208374         0.326228
 C        -2.851104        -0.007378         1.071688
 O        -2.978772         0.202883         2.488904
 C        -4.016862         0.864909         0.417171
 C        -3.970459         0.844119        -1.114871
 C        -3.216156         1.858427        -1.826188
 O        -4.665094         1.975169        -1.649686
 H        -0.274325         0.624802        -2.546646
 H         1.047628         0.928091        -1.410026
 H         0.523813        -0.715874        -2.069699
 H        -3.060687        -1.058388         0.980206
 H        -2.962585        -0.674773         2.992877
 H        -5.062517         0.516021         0.802444
 H        -3.763529         1.791814         0.967479
 H        -4.064942        -0.107271        -1.580141
 H        -2.683157         2.572045        -1.092318
 H        -2.900167         1.868141        -2.888126
