19
Iteration:   462
 C         1.514712        -0.007803        -0.319959
 C         0.010101        -0.127463        -0.222218
 C        -1.172081         0.033729         0.155472
 C        -2.754822        -0.013397         0.325257
 O        -2.895046        -0.370272         1.666805
 C        -3.412590         1.431603        -0.088433
 C        -4.847020         1.457504        -0.576481
 C        -5.167397         1.340878        -1.990028
 O        -5.034777         2.624845        -1.411176
 H         1.844354         0.138477        -1.383999
 H         2.022940         0.785329         0.283044
 H         1.919366        -0.937960         0.143251
 H        -3.067044        -0.807310        -0.331481
 H        -3.784318        -0.133835         1.973241
 H        -3.155864         2.135301         0.789914
 H        -2.775242         1.543881        -0.968867
 H        -5.557411         1.325754         0.157810
 H        -4.397105         0.902881        -2.620380
 H        -6.208662         1.184592        -2.266789
