19
Iteration:   274charge 0 multiplicity 1
 C         1.548630        -0.351312         0.275112
 C         0.192223         0.195553         0.063596
 C        -1.023647         0.115434         0.046854
 C        -2.524371         0.114239        -0.256821
 O        -3.096187        -0.628271         0.898594
 C        -3.176369         1.537375        -0.609012
 C        -4.576441         1.794817        -0.358444
 C        -5.623296         1.181677        -1.192086
 O        -5.342905         2.578968        -1.257462
 H         1.670566        -1.331023        -0.226857
 H         2.320929         0.321787        -0.085989
 H         1.717224        -0.502984         1.373210
 H        -2.664511        -0.636883        -1.115189
 H        -3.777687         0.015114         1.274517
 H        -2.523490         2.332755        -0.124777
 H        -2.984625         1.782282        -1.688749
 H        -4.766300         1.988034         0.625021
 H        -5.111631         0.434257        -1.851098
 H        -6.651373         0.924172        -0.819744
