19
Iteration:  1487charge 0 multiplicity 1
 C         0.504013        -0.072848        -1.224976
 C        -0.748467         0.080224        -0.402266
 C        -1.872969        -0.003481         0.017065
 C        -2.922207         0.091907         0.971679
 O        -2.400186         0.513478         2.233316
 C        -4.270857         0.822414         0.470638
 C        -4.220389         0.916347        -1.075752
 C        -3.409400         1.729975        -1.842675
 O        -4.753321         2.166240        -1.660497
 H         0.335361        -0.217852        -2.240828
 H         1.028382         0.839867        -1.090142
 H         1.067170        -0.892645        -0.818536
 H        -3.128270        -0.922909         1.276885
 H        -1.699398         1.123423         2.040768
 H        -5.263090         0.332087         0.817543
 H        -4.371128         1.825788         0.950764
 H        -4.557484         0.034695        -1.653986
 H        -2.631899         2.281913        -1.274485
 H        -3.020470         1.544212        -2.859381
