19
Iteration:  4640
 C         0.854476        -0.566953        -0.677250
 C        -0.517804        -0.205500        -0.342259
 C        -1.636265        -0.054079         0.083923
 C        -2.831392         0.263295         0.799974
 O        -2.490155         0.560239         2.203748
 C        -3.749079         1.433647         0.356640
 C        -4.186106         1.124288        -1.030992
 C        -4.112013         2.013534        -2.287638
 O        -5.338613         1.805850        -1.686283
 H         1.565074         0.195442        -0.935354
 H         1.375767        -1.178917         0.153028
 H         0.877126        -1.268196        -1.536537
 H        -3.533233        -0.574944         0.766275
 H        -1.586453         0.199235         2.477252
 H        -4.350665         1.153832         1.150339
 H        -3.291366         2.395746         0.607912
 H        -4.137074         0.017590        -1.056733
 H        -3.638281         3.054266        -2.216481
 H        -3.884221         1.645774        -3.247621
