19
Iteration:   712
 C         1.411015        -0.110293        -0.053194
 C        -0.020578        -0.234162        -0.042388
 C        -1.211585        -0.094995        -0.150027
 C        -2.664854         0.124186         0.032247
 O        -2.927207        -0.287579         1.391998
 C        -3.215604         1.646668         0.000823
 C        -4.655323         1.574304        -0.408454
 C        -5.075764         1.225283        -1.827125
 O        -5.410920         2.579426        -1.367776
 H         1.738606         0.678910        -0.705861
 H         1.725400         0.203838         0.923941
 H         1.969170        -0.930416        -0.471169
 H        -3.077553        -0.457050        -0.838233
 H        -2.611848        -1.187344         1.459509
 H        -2.986659         2.121895         0.908882
 H        -2.663449         2.057533        -0.823327
 H        -5.228188         1.144058         0.384768
 H        -4.263050         1.135720        -2.568006
 H        -6.003850         0.588354        -2.018316
