19
Iteration:  3019charge 0 multiplicity 1
 C         0.783007         0.125543        -1.038460
 C        -0.507902         0.149332        -0.335233
 C        -1.617701         0.029238         0.131738
 C        -2.902676        -0.004286         0.916285
 O        -2.682508         0.028864         2.343546
 C        -3.895312         1.119351         0.372476
 C        -4.312294         1.017018        -1.054795
 C        -3.821617         1.735198        -2.235132
 O        -4.998677         2.152436        -1.634292
 H         1.164549         1.148053        -1.230866
 H         1.378085        -0.515849        -0.323704
 H         0.737825        -0.425725        -2.032493
 H        -3.527489        -0.927292         0.782578
 H        -1.822521         0.572230         2.501055
 H        -4.736413         1.019041         1.025809
 H        -3.453506         2.105687         0.655017
 H        -4.642189         0.003113        -1.331414
 H        -2.956665         2.300468        -1.954104
 H        -3.939975         1.349060        -3.240126
