19
Iteration:  2722charge 0 multiplicity 1
 C         0.899311         0.046524        -0.742226
 C        -0.536647        -0.071864        -0.518765
 C        -1.592489         0.046755         0.003320
 C        -2.916214        -0.059088         0.801659
 O        -2.542304         0.069257         2.152422
 C        -3.818953         1.117386         0.381406
 C        -4.290938         1.103976        -1.062155
 C        -3.905933         2.034806        -2.132113
 O        -5.272588         2.020313        -1.488294
 H         1.324101         0.144059        -1.767567
 H         1.224256         0.943159        -0.248877
 H         1.325690        -0.921925        -0.427136
 H        -3.324014        -1.046548         0.804127
 H        -1.938304         0.809281         2.085525
 H        -4.838056         1.063428         0.985538
 H        -3.201840         2.066690         0.783608
 H        -4.530251         0.042103        -1.354491
 H        -3.255111         2.823742        -1.846787
 H        -3.804534         1.599627        -3.139018
