19
Iteration:   513
 C         1.294558         0.004912        -0.527969
 C        -0.139010         0.002109        -0.022613
 C        -1.325559        -0.133619         0.178724
 C        -2.743030         0.034444         0.266719
 O        -3.006121        -0.185918         1.716745
 C        -3.110707         1.413591        -0.068395
 C        -4.602604         1.385731        -0.650573
 C        -4.899428         1.357561        -2.072571
 O        -5.185991         2.509743        -1.244715
 H         1.248303         0.427535        -1.522236
 H         1.854733         0.760880         0.011027
 H         1.934106        -0.848785        -0.329725
 H        -3.250413        -0.716880        -0.471107
 H        -3.773892        -0.820110         1.889653
 H        -3.033132         1.938510         0.856955
 H        -2.360616         1.682364        -0.809925
 H        -5.378769         0.855082         0.079589
 H        -4.153005         1.708658        -2.833033
 H        -5.697238         0.650237        -2.382150
