19
Iteration:  1316
 C         0.961649        -0.155769        -1.003794
 C        -0.303116        -0.188006        -0.306448
 C        -1.318807         0.110095         0.364368
 C        -2.657168         0.194686         0.729266
 O        -3.162866         0.023850         2.113932
 C        -3.411869         1.515922         0.314511
 C        -4.386958         1.088769        -0.905505
 C        -4.311813         1.550023        -2.369546
 O        -5.163572         2.219883        -1.398606
 H         1.118047        -1.083858        -1.635783
 H         1.072466         0.771387        -1.620593
 H         1.763144        -0.013021        -0.232852
 H        -3.091018        -0.467425         0.055441
 H        -2.301811        -0.311887         2.513713
 H        -4.219995         1.782332         0.988714
 H        -2.670217         2.256828         0.152475
 H        -4.924513         0.161193        -0.626805
 H        -3.499642         2.201454        -2.565701
 H        -4.888368         1.004186        -3.059368
