19
Iteration:  2559
 C         1.328510        -0.070655        -0.457651
 C        -0.099548         0.062800        -0.021900
 C        -1.278421        -0.006548         0.040813
 C        -2.662349         0.174522         0.346363
 O        -3.023749        -0.338316         1.774262
 C        -3.353967         1.497771        -0.076957
 C        -4.707525         1.211242        -0.680322
 C        -4.721123         1.435901        -2.209076
 O        -5.234518         2.387740        -1.213390
 H         1.496758        -0.646268        -1.411692
 H         1.545936         0.990983        -0.647564
 H         1.905777        -0.539313         0.381946
 H        -3.080432        -0.704176        -0.285407
 H        -2.898976         0.333141         2.511090
 H        -3.620880         2.129369         0.747940
 H        -2.761470         2.022938        -0.724833
 H        -5.321802         0.590684        -0.022709
 H        -3.774563         1.890213        -2.588675
 H        -5.423816         1.062085        -2.950238
