19
Iteration:  1410
 C         0.725266        -0.057333        -0.974945
 C        -0.605406        -0.116145        -0.510820
 C        -1.699418         0.031783         0.069124
 C        -2.953003         0.082673         0.954751
 O        -2.510582         0.191435         2.305028
 C        -3.877066         1.175923         0.420462
 C        -4.195329         1.011949        -1.040998
 C        -3.800900         1.773168        -2.202689
 O        -5.030830         2.164907        -1.569441
 H         0.711959        -0.652357        -1.830017
 H         1.113261         0.918325        -1.018023
 H         1.400317        -0.448496        -0.241452
 H        -3.481928        -0.906448         0.904703
 H        -1.988401         1.035929         2.336374
 H        -4.856503         1.060193         0.936712
 H        -3.500305         2.206831         0.422525
 H        -4.826944         0.137433        -1.278946
 H        -2.952260         2.466653        -2.133979
 H        -4.070847         1.242158        -3.163736
