19
Iteration:  3246
 C         1.266406         0.038179        -0.493392
 C        -0.036981        -0.045496         0.033902
 C        -1.234693        -0.069680         0.402360
 C        -2.656523         0.024629         0.358831
 O        -3.135256        -0.091119         1.752863
 C        -3.188449         1.343413        -0.230975
 C        -4.637276         1.237485        -0.756598
 C        -4.918432         1.358228        -2.208564
 O        -5.180541         2.527325        -1.259461
 H         1.959006         0.519100         0.190111
 H         1.584114        -0.913554        -0.681198
 H         1.087494         0.397120        -1.483037
 H        -3.107516        -0.872456        -0.152641
 H        -2.352531        -0.060905         2.289983
 H        -3.449466         1.858730         0.775093
 H        -2.463851         1.918230        -0.862491
 H        -5.298640         0.502942        -0.276705
 H        -4.183130         1.545196        -2.916774
 H        -5.850044         1.079931        -2.759258
