19
Iteration:  3697
 C         1.408962        -0.049134        -0.022982
 C        -0.013899        -0.205688         0.020980
 C        -1.204413        -0.065830         0.115387
 C        -2.659528         0.051949         0.132455
 O        -3.108529         0.045991         1.486123
 C        -3.049231         1.476595        -0.433038
 C        -4.606459         1.756706        -0.516210
 C        -5.485796         1.044883        -1.433789
 O        -5.032591         2.316672        -1.778360
 H         2.028450        -0.922543        -0.088162
 H         1.827518         0.554625        -0.851269
 H         1.819905         0.516123         0.854420
 H        -3.138722        -0.802627        -0.433324
 H        -2.825652        -0.664585         2.071503
 H        -2.571286         2.157212         0.343422
 H        -2.777172         1.637439        -1.509063
 H        -5.123255         2.076911         0.417910
 H        -5.061106         0.136870        -1.950595
 H        -6.590113         0.989904        -1.284340
