19
Iteration:  4020
 C         1.196045        -0.398802        -0.419778
 C        -0.249690        -0.067184        -0.318143
 C        -1.337584         0.156847         0.200665
 C        -2.689309         0.364914         0.621394
 O        -2.662063         0.276427         2.053320
 C        -3.469541         1.624542         0.059572
 C        -4.682455         1.159215        -0.812712
 C        -4.640889         1.150896        -2.293110
 O        -5.333282         2.193952        -1.576528
 H         1.528847        -0.935396        -1.326516
 H         1.813822         0.503293        -0.406614
 H         1.569666        -1.010717         0.322707
 H        -3.260054        -0.542300         0.328496
 H        -2.717635        -0.705108         2.281779
 H        -3.715106         2.427402         0.734266
 H        -2.701126         2.200637        -0.581501
 H        -5.274980         0.253796        -0.436316
 H        -3.643500         1.458501        -2.753656
 H        -5.190674         0.546429        -2.969457
