19
Iteration:  4130charge 0 multiplicity 1
 C         0.936394        -0.066451        -0.911878
 C        -0.400748         0.008139        -0.331916
 C        -1.376967         0.002305         0.375586
 C        -2.765951         0.173789         0.834295
 O        -2.895997         0.307157         2.256444
 C        -3.421393         1.460176         0.201703
 C        -4.583696         1.267787        -0.829122
 C        -4.453395         0.914362        -2.221342
 O        -4.900499         2.286966        -1.834204
 H         0.799573        -0.092466        -2.015829
 H         1.470938         0.817332        -0.669234
 H         1.409236        -0.892776        -0.522909
 H        -3.107103        -0.873246         0.670097
 H        -2.379371        -0.420508         2.665357
 H        -3.935809         2.148958         0.950970
 H        -2.584791         2.021019        -0.379665
 H        -5.519268         1.042083        -0.189771
 H        -3.425462         0.898493        -2.589145
 H        -5.183220         0.327961        -2.807375
