19
Iteration:  1310
 C         1.000520        -0.132639        -0.987987
 C        -0.317196        -0.165064        -0.296636
 C        -1.288412         0.060043         0.363042
 C        -2.699324         0.228299         0.755935
 O        -3.126427        -0.000376         2.086601
 C        -3.415688         1.534716         0.299983
 C        -4.407094         1.104517        -0.910533
 C        -4.356221         1.522430        -2.366799
 O        -5.158014         2.239983        -1.389686
 H         1.061487        -1.104902        -1.444638
 H         1.165508         0.663774        -1.706585
 H         1.808430        -0.114170        -0.264528
 H        -3.084293        -0.666913         0.073197
 H        -2.484546        -0.450155         2.616766
 H        -4.071907         1.831182         1.151532
 H        -2.670910         2.379888         0.121874
 H        -4.950511         0.195267        -0.607471
 H        -3.575388         2.240531        -2.856441
 H        -4.847061         0.956266        -3.229208
