19
Iteration:  1424charge 0 multiplicity 1
 C         0.735103        -0.057929        -0.979466
 C        -0.674609        -0.153225        -0.563257
 C        -1.785221        -0.015684         0.013426
 C        -2.867224         0.148635         0.878737
 O        -2.515613         0.285894         2.279108
 C        -3.965383         1.154656         0.431083
 C        -4.339195         0.961270        -1.036382
 C        -3.644507         1.759570        -2.087306
 O        -4.986298         2.133952        -1.541354
 H         1.151444        -0.381581        -1.992796
 H         0.928441         1.056986        -1.043727
 H         1.377194        -0.572507        -0.202397
 H        -3.392940        -0.899704         0.866391
 H        -2.041310         1.079919         2.490259
 H        -4.897171         1.105990         1.062487
 H        -3.572896         2.130870         0.667502
 H        -4.587262        -0.081267        -1.371472
 H        -2.842708         2.418678        -1.802383
 H        -3.590636         1.442706        -3.082379
