19
Iteration:   169charge 0 multiplicity 1
 C         1.224566        -0.071067         0.463117
 C        -0.097527         0.119551        -0.058930
 C        -1.245863         0.027248        -0.382594
 C        -2.620296         0.044500        -0.340694
 O        -3.218734        -0.589552         0.847269
 C        -2.855357         1.543056        -0.612354
 C        -4.280060         1.783117        -0.252805
 C        -5.320833         1.104546        -1.059276
 O        -5.240972         2.489686        -1.116572
 H         1.437702        -1.150435         0.534548
 H         2.033131         0.377041        -0.130452
 H         1.273839         0.372320         1.457190
 H        -2.885460        -0.558828        -1.201074
 H        -3.681314         0.188050         1.214445
 H        -2.312277         2.274099        -0.016241
 H        -2.677285         1.703601        -1.686221
 H        -4.359678         2.070078         0.880567
 H        -4.938197         0.659393        -1.941192
 H        -6.189969         0.633712        -0.637975
