19
Iteration:  4620charge 0 multiplicity 1
 C         0.765076        -0.623197        -0.753941
 C        -0.546284        -0.178792        -0.342079
 C        -1.661030         0.107323         0.031486
 C        -2.878567         0.283372         0.941693
 O        -2.484250         0.542816         2.263005
 C        -3.786735         1.396736         0.294805
 C        -4.077490         1.078411        -1.140761
 C        -4.015561         2.076767        -2.250467
 O        -5.302630         1.701607        -1.592538
 H         1.314784         0.291607        -0.939000
 H         1.235072        -1.054583         0.103110
 H         0.682404        -1.329232        -1.551243
 H        -3.298853        -0.718110         0.992753
 H        -1.636806         0.203817         2.300046
 H        -4.763792         1.414777         0.769957
 H        -3.127387         2.307046         0.354114
 H        -3.985050         0.015221        -1.359998
 H        -3.617894         3.148040        -2.182419
 H        -3.803684         1.714960        -3.304156
