19
Iteration:  2975
 C         0.461576         0.421757        -1.284257
 C        -0.655133        -0.054482        -0.393367
 C        -1.709923        -0.101479         0.183173
 C        -2.958453        -0.071898         0.966429
 O        -2.713526         0.248642         2.373070
 C        -3.805932         1.126118         0.439893
 C        -4.121246         0.881942        -1.079462
 C        -3.452859         1.749692        -2.015493
 O        -4.908828         2.069262        -1.712560
 H         0.235534         1.465880        -1.561702
 H         1.415998         0.271442        -0.790437
 H         0.290004        -0.171578        -2.197576
 H        -3.432163        -1.076362         0.775195
 H        -3.058253        -0.495342         2.963057
 H        -4.707472         1.141719         1.017396
 H        -3.223476         2.066231         0.640656
 H        -4.581236        -0.080489        -1.287858
 H        -2.718450         2.445604        -1.617084
 H        -3.340204         1.511827        -3.031574
