19
Iteration:  1909
 C         1.115227        -0.076861        -0.785170
 C        -0.233036        -0.056979        -0.251606
 C        -1.390585         0.127098         0.179018
 C        -2.717221         0.177510         0.694431
 O        -2.767340         0.064910         2.126743
 C        -3.656364         1.461210         0.374320
 C        -4.670463         1.196389        -0.816710
 C        -4.361251         1.296681        -2.300855
 O        -5.172723         2.286699        -1.713792
 H         1.849736         0.570815        -0.302128
 H         1.544681        -1.046064        -0.764608
 H         1.180672         0.210150        -1.804069
 H        -3.238172        -0.757597         0.399038
 H        -2.851039        -0.840729         2.424881
 H        -4.194000         1.776129         1.304893
 H        -2.825051         2.286793         0.270111
 H        -5.435160         0.481553        -0.466654
 H        -3.259480         1.402872        -2.585395
 H        -4.760565         0.393763        -2.931340
