19
Iteration:  3741charge 0 multiplicity 1
 C         1.416766        -0.084531        -0.260024
 C        -0.021015        -0.089727        -0.051954
 C        -1.176567        -0.043586         0.259441
 C        -2.639248         0.012044         0.280042
 O        -3.244825         0.219067         1.677726
 C        -3.068187         1.353357        -0.402872
 C        -4.633909         1.505930        -0.544329
 C        -5.339642         1.028713        -1.755438
 O        -5.001168         2.448619        -1.613282
 H         1.774430        -1.054524        -0.487895
 H         1.739579         0.602056        -1.074124
 H         1.846925         0.288631         0.705840
 H        -3.069050        -0.896997        -0.262812
 H        -2.965897        -0.626520         2.073410
 H        -2.805812         2.188086         0.311183
 H        -2.587724         1.264251        -1.412707
 H        -5.177000         1.700281         0.391922
 H        -4.866336         0.437906        -2.634057
 H        -6.406121         0.834341        -1.675114
