19
Iteration:   596charge 0 multiplicity 1
 C         1.339533        -0.013160        -0.620619
 C        -0.026126        -0.204924        -0.022808
 C        -1.173379         0.003508         0.418348
 C        -2.621393         0.088023         0.466984
 O        -3.118781        -0.319769         1.722267
 C        -3.295946         1.495014        -0.114888
 C        -4.716419         1.359063        -0.751621
 C        -4.980669         1.476293        -2.199599
 O        -5.173140         2.519820        -1.257529
 H         1.348110         0.493022        -1.638030
 H         2.056696         0.580031         0.039553
 H         1.758813        -0.999940        -0.999083
 H        -2.979885        -0.754432        -0.204660
 H        -2.534013        -0.881759         2.192970
 H        -3.328197         2.363899         0.716623
 H        -2.403546         1.746481        -0.823184
 H        -5.321495         0.605115        -0.042401
 H        -4.288130         1.736411        -2.992972
 H        -5.946224         1.055988        -2.507623
