19
Iteration:  2413charge 0 multiplicity 1
 C         1.491178         0.240474         0.222474
 C         0.095299        -0.098517        -0.123486
 C        -1.155884        -0.103683         0.047263
 C        -2.614138        -0.042746        -0.008528
 O        -3.324241        -0.376880         1.152296
 C        -2.972701         1.344217        -0.569204
 C        -4.418061         1.725190        -0.483216
 C        -5.630791         1.165169        -1.191344
 O        -5.122523         2.465994        -1.517897
 H         2.018851        -0.762270         0.233920
 H         1.831859         1.062196        -0.443131
 H         1.514862         0.564954         1.295976
 H        -2.793388        -0.844475        -0.846816
 H        -2.914336         0.130423         1.839736
 H        -2.515119         2.163784        -0.019282
 H        -2.724065         1.516743        -1.649125
 H        -4.679136         1.929019         0.581492
 H        -5.557304         0.501125        -2.007184
 H        -6.571245         1.131010        -0.621815
