19
Iteration:  3989charge 0 multiplicity 1
 C         1.204259        -0.458144        -0.280343
 C        -0.157249        -0.001497        -0.059573
 C        -1.403918         0.158575        -0.153521
 C        -2.662961         0.242265         0.513800
 O        -2.680217         0.394197         2.025691
 C        -3.433357         1.568903         0.073291
 C        -4.614195         1.172089        -0.866980
 C        -4.737597         1.179110        -2.316541
 O        -5.357546         2.204321        -1.463342
 H         1.177501        -1.005999        -1.306500
 H         1.823791         0.395418        -0.559809
 H         1.860481        -1.083856         0.374138
 H        -3.273812        -0.640380         0.153056
 H        -2.372828        -0.494953         2.183270
 H        -3.813000         1.977136         0.987116
 H        -2.782828         2.225038        -0.353509
 H        -5.007354         0.177069        -0.492291
 H        -3.944326         1.671994        -2.926298
 H        -5.400157         0.479759        -2.701719
