19
Iteration:  2345charge 0 multiplicity 1
 C         1.407010        -0.020042         0.549585
 C        -0.020622         0.066721         0.225827
 C        -1.140623        -0.013320        -0.181640
 C        -2.564510         0.010777        -0.399198
 O        -3.150194        -0.198511         0.892890
 C        -3.003853         1.452479        -0.915033
 C        -4.345316         1.818860        -0.451700
 C        -5.570799         1.019205        -0.796096
 O        -5.331630         2.313048        -1.375847
 H         1.645140        -1.072171         0.791507
 H         1.953984         0.275860        -0.375408
 H         1.788170         0.442985         1.451962
 H        -3.062099        -0.774843        -1.092574
 H        -2.498154        -0.182244         1.608798
 H        -2.180370         2.102369        -0.497402
 H        -2.848537         1.357867        -2.044117
 H        -4.261571         2.382091         0.467948
 H        -5.513778         0.179100        -1.515415
 H        -6.454707         1.031824        -0.210540
