19
Iteration:  2742charge 0 multiplicity 1
 C         0.819615         0.127800        -0.880724
 C        -0.554364        -0.088519        -0.489912
 C        -1.722463        -0.102142        -0.020923
 C        -2.897115         0.003746         0.750945
 O        -2.565082         0.142383         2.199225
 C        -3.844089         1.081411         0.450389
 C        -4.232757         0.986004        -1.002791
 C        -3.792696         2.040857        -2.001849
 O        -5.138541         2.001393        -1.557331
 H         1.026194         0.248606        -1.980119
 H         1.153346         1.029692        -0.348299
 H         1.512582        -0.724133        -0.804380
 H        -3.453476        -0.917109         0.679766
 H        -2.758967         1.059073         2.412915
 H        -4.826797         1.029786         1.029632
 H        -3.477430         2.209728         0.517757
 H        -4.294466        -0.054784        -1.469444
 H        -3.303339         2.929772        -1.638630
 H        -3.623050         1.870382        -3.053243
