19
Iteration:  1768charge 0 multiplicity 1
 C         0.767943        -0.059885        -0.992228
 C        -0.567919        -0.122924        -0.415691
 C        -1.677828         0.007135         0.037681
 C        -2.915405         0.071450         0.872894
 O        -2.675638         0.470235         2.228588
 C        -3.890176         1.073778         0.356002
 C        -4.355743         0.849068        -1.018364
 C        -3.722896         1.622348        -2.092535
 O        -4.958962         2.242054        -1.502760
 H         1.128696         0.978250        -1.178688
 H         1.605922        -0.557177        -0.492209
 H         0.683087        -0.493828        -2.005998
 H        -3.273465        -0.989743         0.830160
 H        -1.834884         0.905619         2.320820
 H        -4.688724         1.224119         1.085007
 H        -3.381823         2.099032         0.413627
 H        -5.063701         0.065459        -1.232892
 H        -2.845088         2.298021        -1.879098
 H        -3.824787         1.374272        -3.163397
