19
Iteration:  4519
 C         0.394370        -0.486177        -1.245383
 C        -0.703197        -0.253943        -0.281448
 C        -1.509945         0.075187         0.489370
 C        -2.783216         0.293107         1.079015
 O        -2.701144         0.768947         2.347968
 C        -3.747750         1.243633         0.251497
 C        -3.831160         0.977517        -1.222033
 C        -3.856201         2.175210        -2.136296
 O        -5.116753         1.526993        -1.719712
 H         0.589057         0.379905        -1.753901
 H         1.314124        -0.768400        -0.689837
 H         0.200701        -1.201819        -2.012976
 H        -3.157047        -0.753346         0.965314
 H        -2.397365         0.052039         3.008191
 H        -4.730946         1.176531         0.608796
 H        -3.420023         2.291888         0.376959
 H        -3.602912        -0.003929        -1.691108
 H        -3.575171         3.117012        -1.581515
 H        -3.677455         2.269187        -3.211653
