19
Iteration:  2217
 C         1.384777        -0.394309         0.662387
 C         0.158108         0.061464         0.091616
 C        -1.029959         0.231951        -0.202768
 C        -2.477565         0.188417        -0.377568
 O        -3.083399        -0.054568         0.872278
 C        -3.087003         1.543610        -0.911389
 C        -4.510846         1.769868        -0.386437
 C        -5.534129         0.897716        -0.893131
 O        -5.466498         2.229447        -1.321529
 H         1.101298        -1.241272         1.365157
 H         2.097262        -0.853757        -0.084743
 H         1.883442         0.516109         1.048364
 H        -2.755804        -0.695022        -0.927839
 H        -2.543873         0.404322         1.565254
 H        -2.265776         2.242848        -0.780896
 H        -3.203823         1.496854        -2.001411
 H        -4.715221         2.503134         0.373118
 H        -5.173905         0.031946        -1.538929
 H        -6.468204         0.808371        -0.384068
