19
Iteration:  3414charge 0 multiplicity 1
 C         1.406096        -0.051275         0.440316
 C         0.014704        -0.017051        -0.051361
 C        -1.137421        -0.048160        -0.303472
 C        -2.535379         0.025062        -0.067947
 O        -3.089586        -0.038591         1.315870
 C        -3.019893         1.437849        -0.599008
 C        -4.506283         1.675604        -0.442032
 C        -5.555936         1.022783        -1.281122
 O        -5.181614         2.373190        -1.520406
 H         1.347181        -0.549147         1.332780
 H         1.842510        -0.702208        -0.369827
 H         1.930023         0.875964         0.274095
 H        -3.197401        -0.758388        -0.518501
 H        -3.973017        -0.337128         1.121227
 H        -2.494540         2.283185         0.060792
 H        -2.684567         1.549847        -1.681849
 H        -4.770476         2.022964         0.595224
 H        -5.229234         0.273638        -1.997884
 H        -6.408934         1.045078        -0.642578
