19
Iteration:  1246
 C         1.199362        -0.163276        -0.602845
 C        -0.184048        -0.040782        -0.146288
 C        -1.391990         0.004204         0.056661
 C        -2.800091         0.076621         0.486621
 O        -2.819968         0.025356         1.931487
 C        -3.456592         1.475262         0.083448
 C        -4.703510         1.246976        -0.763896
 C        -4.571609         1.254835        -2.167414
 O        -5.095964         2.505853        -1.371036
 H         1.325756        -1.293687        -0.638394
 H         1.453581         0.220796        -1.657663
 H         1.949073         0.278918         0.127281
 H        -3.518996        -0.630685         0.093119
 H        -2.534014        -0.863909         2.245736
 H        -3.697019         1.808632         1.101871
 H        -2.967202         2.185931        -0.618392
 H        -5.603782         0.768099        -0.344374
 H        -3.518675         1.500268        -2.476340
 H        -5.322287         0.884228        -2.876081
