19
Iteration:  3699charge 0 multiplicity 1
 C         1.405171        -0.050736        -0.032732
 C         0.010110        -0.212382         0.012299
 C        -1.204340        -0.073808         0.107887
 C        -2.655035         0.063839         0.141980
 O        -3.130662         0.049792         1.503025
 C        -3.051874         1.492347        -0.414956
 C        -4.609471         1.724008        -0.519321
 C        -5.496786         1.033211        -1.452981
 O        -5.015987         2.328714        -1.771549
 H         2.055936        -0.899914        -0.080061
 H         1.853578         0.607811        -0.895770
 H         1.806228         0.497428         0.845981
 H        -3.143433        -0.779158        -0.366510
 H        -2.850697        -0.627723         2.073712
 H        -2.543996         2.121968         0.220384
 H        -2.812874         1.729464        -1.466595
 H        -5.096067         2.031970         0.376071
 H        -5.130801         0.080207        -1.974537
 H        -6.558533         1.059044        -1.292796
