19
Iteration:  2001
 C         1.101414         0.215553        -0.738777
 C        -0.183208        -0.089615        -0.145335
 C        -1.309150        -0.180923         0.390526
 C        -2.700174         0.034452         0.606147
 O        -3.142659         0.055675         2.056861
 C        -3.130837         1.301387        -0.121287
 C        -4.565989         1.248393        -0.744935
 C        -4.821039         1.222150        -2.224587
 O        -5.010984         2.369043        -1.472415
 H         1.875497         0.583232        -0.011894
 H         1.631443        -0.619739        -1.285916
 H         0.900367         1.034346        -1.509637
 H        -3.145271        -0.811982         0.113368
 H        -2.863300         0.963344         2.345322
 H        -3.102383         2.218633         0.553105
 H        -2.433877         1.569888        -0.902680
 H        -5.408560         0.934275        -0.120201
 H        -3.933757         1.101657        -2.871523
 H        -5.749283         0.796028        -2.633332
