19
Iteration:  3253
 C         1.283055         0.037051        -0.495080
 C        -0.089250        -0.023100         0.027019
 C        -1.204406        -0.039760         0.420853
 C        -2.679710        -0.011106         0.371111
 O        -3.164801        -0.111861         1.710218
 C        -3.219365         1.370780        -0.268197
 C        -4.631768         1.195267        -0.740069
 C        -4.932620         1.314679        -2.184219
 O        -5.136380         2.558407        -1.228554
 H         2.098998         0.497558         0.134687
 H         1.663676        -1.045547        -0.653919
 H         1.400398         0.495262        -1.502337
 H        -3.047887        -0.784406        -0.294397
 H        -2.486642         0.189623         2.368296
 H        -3.292022         1.993240         0.569689
 H        -2.553700         1.857576        -0.936578
 H        -5.373860         0.591796        -0.228732
 H        -4.000610         1.433459        -2.828314
 H        -5.903254         1.093400        -2.627045
