19
Iteration:  2771charge 0 multiplicity 1
 C         0.654653         0.176717        -1.153200
 C        -0.595636         0.006334        -0.415741
 C        -1.713049        -0.109052         0.133707
 C        -2.958483        -0.067401         0.896948
 O        -2.517671         0.175392         2.299536
 C        -3.980635         1.012569         0.389727
 C        -4.166840         0.966697        -1.090160
 C        -3.582370         2.026945        -1.908004
 O        -5.045851         2.025098        -1.649125
 H         0.442206         0.576374        -2.175205
 H         1.182993         1.124864        -0.881157
 H         1.276300        -0.738786        -1.197343
 H        -3.435180        -1.110238         0.925182
 H        -3.347844         0.666702         2.594825
 H        -4.919059         1.018501         0.878527
 H        -3.519255         1.925799         0.507412
 H        -4.128153         0.026108        -1.609648
 H        -3.093086         2.961140        -1.466688
 H        -3.316261         1.763432        -2.938807
