19
Iteration:  2136charge 0 multiplicity 1
 C         1.576508        -0.178286         0.147373
 C         0.098714        -0.083159         0.156723
 C        -1.078572         0.022317        -0.129225
 C        -2.611485         0.159366        -0.035239
 O        -3.103452         0.000903         1.330509
 C        -3.126838         1.530167        -0.546752
 C        -4.679646         1.716452        -0.476060
 C        -5.511486         0.957034        -1.375527
 O        -5.287367         2.317105        -1.528715
 H         2.029757        -0.546957         1.153830
 H         1.775852        -0.930788        -0.698386
 H         2.090849         0.848891         0.122402
 H        -2.972957        -0.680013        -0.604755
 H        -2.535456        -0.601284         1.910103
 H        -2.719939         2.228719         0.168293
 H        -2.692571         1.670234        -1.552670
 H        -5.115103         1.974507         0.520009
 H        -5.024988         0.400221        -2.171485
 H        -6.590723         0.661302        -1.321512
