19
Iteration:  1561charge 0 multiplicity 1
 C         0.235906        -0.033783        -1.659182
 C        -0.683450        -0.058661        -0.526642
 C        -1.541947         0.022373         0.335553
 C        -2.886254         0.029958         1.142347
 O        -2.921083         0.536821         2.487004
 C        -3.943547         0.930095         0.484554
 C        -4.071958         0.820330        -1.153895
 C        -3.258345         1.882345        -1.827758
 O        -4.753093         2.018991        -1.710615
 H        -0.353032         0.369796        -2.589411
 H         1.013502         0.818029        -1.446411
 H         0.677088        -1.062239        -1.905134
 H        -3.292488        -0.972887         1.263762
 H        -2.848669         1.523894         2.311487
 H        -4.945937         0.708431         0.846932
 H        -3.839141         2.002771         0.839260
 H        -4.206734        -0.166651        -1.632629
 H        -2.578762         2.677964        -1.397234
 H        -3.023701         1.681228        -2.958497
