19
Iteration:  2537charge 0 multiplicity 1
 C         1.433526         0.043346        -0.362424
 C        -0.025956        -0.084550        -0.200732
 C        -1.219532         0.073455         0.191634
 C        -2.738129         0.010712         0.301882
 O        -3.114699        -0.247535         1.632019
 C        -3.324437         1.362289        -0.000601
 C        -4.687015         1.294844        -0.652376
 C        -4.874964         1.366499        -2.071213
 O        -5.214940         2.540351        -1.296763
 H         1.717323        -0.605361        -1.244217
 H         1.615336         1.084043        -0.739113
 H         1.987645        -0.339949         0.540030
 H        -3.032031        -0.963893        -0.229113
 H        -2.803891         0.394636         2.253593
 H        -3.365925         1.994106         0.855715
 H        -2.636700         1.717970        -0.669926
 H        -5.371395         0.581504        -0.178507
 H        -3.935341         1.494400        -2.671668
 H        -5.665717         0.750010        -2.482205
