19
Iteration:  1763
 C         0.755194        -0.050337        -1.049651
 C        -0.573885        -0.097888        -0.371197
 C        -1.714979        -0.020596         0.076225
 C        -2.893370         0.028022         0.833744
 O        -2.692199         0.500779         2.266860
 C        -3.874108         1.090495         0.336179
 C        -4.369241         0.873724        -1.031542
 C        -3.711342         1.662067        -2.094286
 O        -4.944560         2.205014        -1.491426
 H         1.044778         0.973160        -1.255857
 H         1.579252        -0.584603        -0.550679
 H         0.841084        -0.501251        -2.050614
 H        -3.360400        -0.955926         0.882694
 H        -1.766425         0.843831         2.356590
 H        -4.735827         1.189419         1.058795
 H        -3.284060         1.998262         0.429205
 H        -4.942502        -0.057175        -1.331954
 H        -2.728804         2.140440        -1.893982
 H        -3.872758         1.430500        -3.158876
