19
Iteration:   735charge 0 multiplicity 1
 C         1.450468        -0.134832        -0.036551
 C         0.015121        -0.106379         0.171323
 C        -1.181546        -0.087556        -0.198784
 C        -2.655335         0.136082        -0.040035
 O        -3.029072        -0.333845         1.295222
 C        -3.181329         1.705338        -0.228992
 C        -4.719578         1.584366        -0.384796
 C        -5.204702         1.146102        -1.741022
 O        -5.260628         2.553842        -1.248739
 H         1.785326         0.676551        -0.691290
 H         1.984583        -0.048701         0.915810
 H         1.648374        -1.042212        -0.630625
 H        -3.073898        -0.381088        -0.957953
 H        -2.520152        -1.149430         1.477936
 H        -3.092536         2.222615         0.728255
 H        -2.494678         2.007678        -0.976127
 H        -5.288961         1.280096         0.536756
 H        -4.413755         1.025416        -2.520354
 H        -6.177642         0.568927        -1.855594
