19
Iteration:  3120charge 0 multiplicity 1
 C         1.153818        -0.209358        -0.501757
 C        -0.270698         0.053148        -0.143408
 C        -1.415493         0.213170         0.062878
 C        -2.726924         0.080815         0.547320
 O        -2.522631        -0.136849         1.966200
 C        -3.743887         1.380721         0.316993
 C        -4.654233         1.189858        -0.965552
 C        -4.321111         1.610470        -2.299722
 O        -5.379710         2.249010        -1.505992
 H         1.745835         0.579668        -0.074131
 H         1.286232        -1.129547         0.134607
 H         1.150577        -0.259222        -1.579252
 H        -3.301716        -0.722333         0.096800
 H        -1.816875         0.539534         2.178453
 H        -4.350032         1.500422         1.189796
 H        -3.109909         2.245137         0.214644
 H        -5.268522         0.262679        -0.864948
 H        -3.303773         2.039878        -2.562514
 H        -4.846396         0.913266        -3.025187
