19
Iteration:  4604
 C         0.786799        -0.627901        -0.864333
 C        -0.621007        -0.185531        -0.337283
 C        -1.681002         0.204837         0.151623
 C        -2.938282         0.261226         0.899654
 O        -2.498346         0.599637         2.325969
 C        -3.756748         1.380122         0.326314
 C        -4.062404         1.006640        -1.197535
 C        -3.998247         2.098505        -2.167068
 O        -5.207073         1.643963        -1.640362
 H         1.398585         0.219845        -1.259829
 H         1.357213        -1.191078        -0.018925
 H         0.583961        -1.405361        -1.690843
 H        -3.559165        -0.666827         0.835424
 H        -1.617354         0.184170         2.421574
 H        -4.779682         1.657504         0.746963
 H        -3.192748         2.282694         0.240425
 H        -3.953977        -0.000843        -1.709939
 H        -3.737474         3.026994        -1.759799
 H        -3.955927         1.931934        -3.227306
