19
Iteration:  4330charge 0 multiplicity 1
 C         0.481931        -0.203664        -1.180137
 C        -0.667695        -0.082505        -0.378761
 C        -1.637684         0.195732         0.267234
 C        -2.870195         0.224759         0.958555
 O        -2.564271         0.626314         2.387452
 C        -4.008690         1.163938         0.381368
 C        -4.445423         0.879057        -1.030099
 C        -3.636489         1.270754        -2.235900
 O        -4.650978         2.193567        -1.691090
 H         0.295386         0.382471        -2.055778
 H         1.292582         0.155985        -0.604907
 H         0.593383        -1.255898        -1.448287
 H        -3.223646        -0.805364         1.175722
 H        -1.614186         1.004599         2.470249
 H        -4.975074         1.062766         0.973246
 H        -3.712560         2.213753         0.449089
 H        -5.280942         0.038661        -1.005123
 H        -2.556750         1.608836        -2.135706
 H        -3.938244         0.705753        -3.064544
