19
Iteration:  3986charge 0 multiplicity 1
 C         1.231844        -0.465668        -0.292721
 C        -0.133474        -0.008112        -0.038829
 C        -1.383912         0.135027        -0.185427
 C        -2.680110         0.256334         0.534092
 O        -2.692832         0.405590         2.008512
 C        -3.460343         1.556154         0.080674
 C        -4.598964         1.169743        -0.857005
 C        -4.735926         1.189863        -2.323232
 O        -5.372403         2.206550        -1.456061
 H         1.131381        -1.005643        -1.229836
 H         1.843494         0.429393        -0.538933
 H         1.724577        -1.023787         0.435053
 H        -3.249395        -0.583945         0.140090
 H        -2.265290        -0.514755         2.198910
 H        -3.849811         1.905997         1.031847
 H        -2.695109         2.233935        -0.540705
 H        -5.088019         0.203198        -0.454426
 H        -3.885324         1.679088        -2.871691
 H        -5.488852         0.494717        -2.744130
