19
Iteration:  2783
 C         0.510244         0.224642        -1.249657
 C        -0.666260         0.040358        -0.412096
 C        -1.656581        -0.015644         0.254470
 C        -2.954253        -0.106563         0.931679
 O        -2.551725         0.197496         2.276484
 C        -3.932088         0.929492         0.433143
 C        -4.143022         0.976918        -1.118521
 C        -3.579689         2.055216        -1.960603
 O        -4.931407         2.017333        -1.692044
 H         0.206319         0.325474        -2.324105
 H         1.237926         0.871860        -0.709643
 H         1.099643        -0.724713        -1.239109
 H        -3.448279        -1.141024         0.842432
 H        -3.262093         0.423373         2.916606
 H        -4.822750         0.657059         0.927418
 H        -3.621502         1.801742         0.902285
 H        -4.374980        -0.009001        -1.556258
 H        -3.001429         2.858401        -1.415536
 H        -3.201428         1.831490        -2.959346
