19
Iteration:  4246
 C         0.725393        -0.034422        -1.036200
 C        -0.704529         0.009791        -0.420333
 C        -1.785215         0.225984         0.041659
 C        -2.985654         0.236624         0.902024
 O        -2.683169         0.334928         2.328331
 C        -3.671307         1.467981         0.407711
 C        -4.484903         1.168583        -0.763825
 C        -3.929877         0.868854        -2.126268
 O        -4.584422         2.138653        -1.837243
 H         0.769293         0.311068        -2.093641
 H         1.477680         0.641773        -0.441113
 H         1.146923        -1.104761        -0.927667
 H        -3.622841        -0.666023         0.752634
 H        -1.765929         0.113735         2.381758
 H        -4.244061         1.762920         1.308670
 H        -2.751475         2.127203         0.303440
 H        -5.392532         0.587995        -0.600755
 H        -2.862953         0.816795        -2.526205
 H        -4.425517         0.115481        -2.796207
