19
Iteration:  3081
 C         1.107637        -0.180805        -0.632974
 C        -0.243743         0.056646        -0.344807
 C        -1.442359         0.275059        -0.037848
 C        -2.806414         0.190854         0.622703
 O        -2.648841         0.039231         2.074311
 C        -3.894369         1.275534         0.366459
 C        -4.604454         1.079272        -0.918378
 C        -4.085918         1.602197        -2.222217
 O        -5.261759         2.200719        -1.470659
 H         1.846472         0.648029        -0.425349
 H         1.592426        -0.977787        -0.114647
 H         1.305121        -0.530994        -1.672447
 H        -3.096573        -0.804941         0.265182
 H        -2.955124        -0.870559         2.371963
 H        -4.614431         1.124840         1.289625
 H        -3.474053         2.306707         0.385172
 H        -5.014397         0.085583        -1.085681
 H        -3.064523         2.061974        -2.245682
 H        -4.314551         1.137346        -3.146442
