19
Iteration:  2246
 C         1.387651        -0.379971         0.710776
 C         0.070581         0.050800         0.302981
 C        -0.974057         0.179727        -0.320021
 C        -2.435322         0.283776        -0.421769
 O        -3.041014        -0.079360         0.875435
 C        -3.042875         1.619900        -1.059348
 C        -4.426852         1.639333        -0.507764
 C        -5.653665         0.986849        -0.728173
 O        -5.537678         2.216903        -1.343048
 H         1.251923        -1.237818         1.417650
 H         1.967339        -0.505416        -0.240692
 H         2.065200         0.299602         1.293458
 H        -2.800209        -0.543779        -1.096899
 H        -2.360254        -0.563916         1.306089
 H        -2.435317         2.459200        -0.735558
 H        -3.001972         1.661512        -2.185295
 H        -4.466198         2.267799         0.361954
 H        -5.774586         0.061063        -1.264088
 H        -6.296553         0.934433         0.140685
