19
Iteration:    75charge 0 multiplicity 1
 C         1.592254        -0.085318         0.206045
 C         0.113277        -0.038930         0.140586
 C        -1.086301         0.017974         0.024873
 C        -2.529397        -0.019818        -0.178171
 O        -3.058570        -0.781788         0.823335
 C        -3.087353         1.444464        -0.530836
 C        -4.666563         1.779981        -0.344197
 C        -5.709680         1.371356        -1.332780
 O        -5.225129         2.747966        -1.127685
 H         1.958557        -1.074056         0.525325
 H         2.086134        -0.008792        -0.802411
 H         1.963050         0.784488         0.773236
 H        -2.660974        -0.629903        -1.116791
 H        -3.826697        -0.296366         1.181574
 H        -2.414055         2.173569         0.023719
 H        -3.052746         1.479693        -1.692721
 H        -4.885922         1.898444         0.743724
 H        -5.330065         0.982451        -2.378576
 H        -6.804856         1.179263        -0.956606
