19
Iteration:  2689charge 0 multiplicity 1
 C         1.046298        -0.113454        -0.661111
 C        -0.343582         0.133287        -0.289291
 C        -1.521505         0.019547        -0.080141
 C        -2.833597         0.060023         0.732828
 O        -2.520304         0.035269         2.134023
 C        -3.809739         1.164929         0.304126
 C        -4.435071         1.052781        -1.094380
 C        -4.127364         1.968430        -2.218753
 O        -5.371579         2.130200        -1.397912
 H         1.201794        -0.290521        -1.739991
 H         1.728572         0.569121        -0.201802
 H         1.443036        -1.045519        -0.162826
 H        -3.377371        -0.862542         0.505388
 H        -1.869426        -0.678171         2.242930
 H        -4.846717         1.248847         0.823178
 H        -3.439819         2.284524         0.378205
 H        -4.776869         0.020641        -1.383337
 H        -3.355524         2.689381        -2.027802
 H        -4.139742         1.584135        -3.250615
