19
Iteration:  4105charge 0 multiplicity 1
 C         0.980030        -0.152994        -0.872480
 C        -0.265243        -0.004565        -0.133361
 C        -1.448904         0.139694         0.271487
 C        -2.815163         0.222574         0.779771
 O        -2.821257         0.221585         2.285917
 C        -3.438967         1.494423         0.099746
 C        -4.604357         1.266849        -0.787517
 C        -4.507998         1.034157        -2.258258
 O        -4.980232         2.211194        -1.804821
 H         0.713880        -0.310792        -1.915931
 H         1.642016         0.776034        -0.782385
 H         1.480321        -1.023930        -0.384202
 H        -3.266260        -0.783939         0.515231
 H        -2.231073        -0.435408         2.586190
 H        -3.605610         2.328703         0.820456
 H        -2.590652         1.755273        -0.692941
 H        -5.425563         0.839505        -0.276223
 H        -3.496271         1.237093        -2.794411
 H        -5.181577         0.295156        -2.683756
