19
Iteration:  4069charge 0 multiplicity 1
 C         1.085834        -0.251398        -0.717254
 C        -0.220615        -0.064171        -0.114241
 C        -1.341284         0.083095         0.215095
 C        -2.757482         0.253135         0.541997
 O        -2.916191         0.388795         2.026923
 C        -3.512061         1.546964         0.137057
 C        -4.596529         1.190350        -0.715592
 C        -4.483947         1.058849        -2.208677
 O        -5.090564         2.185630        -1.604833
 H         1.073585        -0.655387        -1.743679
 H         1.773089         0.628373        -0.708932
 H         1.736517        -1.115469        -0.235196
 H        -3.384506        -0.677161         0.200469
 H        -2.167563        -0.135439         2.285923
 H        -3.889970         2.051141         1.047534
 H        -2.913778         2.302822        -0.267562
 H        -5.436890         0.677036        -0.234012
 H        -3.610610         1.253902        -2.785714
 H        -5.153581         0.283841        -2.694871
