19
Iteration:  3664charge 0 multiplicity 1
 C         1.450735        -0.134056         0.144892
 C        -0.070567         0.018588         0.159264
 C        -1.243753        -0.072120        -0.121537
 C        -2.684922         0.050530         0.064981
 O        -3.106031        -0.110447         1.448215
 C        -2.994804         1.551290        -0.616459
 C        -4.493558         1.925860        -0.555064
 C        -5.438617         0.996489        -1.172134
 O        -5.164424         2.269870        -1.782028
 H         1.661981        -1.194897         0.217791
 H         1.812216         0.281004        -0.805414
 H         1.876480         0.418003         1.022025
 H        -3.198423        -0.615585        -0.648641
 H        -2.533244        -0.760231         1.807569
 H        -2.457252         2.352387        -0.161546
 H        -2.627621         1.285185        -1.617598
 H        -5.009094         2.222519         0.401512
 H        -5.021758         0.179852        -1.758463
 H        -6.468962         0.839451        -0.717015
