19
Iteration:   608
 C         1.357625        -0.087322        -0.637297
 C         0.026623        -0.086111         0.112396
 C        -1.178130         0.019832         0.318624
 C        -2.672211         0.025008         0.412911
 O        -3.057536        -0.343571         1.784120
 C        -3.271993         1.471675        -0.112202
 C        -4.720271         1.341997        -0.743876
 C        -5.014244         1.428698        -2.231897
 O        -5.220973         2.633033        -1.251756
 H         1.111464         0.620654        -1.459205
 H         2.152920         0.374387         0.024612
 H         1.787644        -1.103196        -0.835446
 H        -3.031113        -0.706685        -0.373168
 H        -2.359464        -1.029783         1.960475
 H        -3.141099         2.232420         0.765720
 H        -2.749297         1.886536        -1.060980
 H        -5.633013         0.842918        -0.125185
 H        -4.114385         1.487027        -2.857789
 H        -5.895875         0.994202        -2.690452
