19
Iteration:  1089
 C         1.544025        -0.138555        -0.244748
 C         0.061918        -0.176141        -0.035450
 C        -1.107803        -0.003145         0.275942
 C        -2.595311         0.167063         0.188786
 O        -3.330546        -0.245825         1.338822
 C        -3.094246         1.560656        -0.274238
 C        -4.615427         1.541244        -0.470209
 C        -5.303303         1.116619        -1.645939
 O        -5.259058         2.536993        -1.501638
 H         2.179073        -0.701753         0.473396
 H         1.872414        -0.577231        -1.190173
 H         1.811339         0.926331        -0.241737
 H        -2.904205        -0.551726        -0.508572
 H        -2.805235         0.024976         2.074333
 H        -2.709901         2.174684         0.480780
 H        -2.450342         1.657727        -1.116540
 H        -5.241223         1.765524         0.360401
 H        -4.672824         0.771258        -2.506794
 H        -6.332178         0.630187        -1.490785
