19
Iteration:  4187
 C         0.779309         0.048157        -0.992279
 C        -0.497828        -0.060413        -0.249462
 C        -1.589473         0.038020         0.167259
 C        -2.875745         0.144727         0.806583
 O        -2.784959         0.327842         2.286659
 C        -3.536650         1.540310         0.261057
 C        -4.631431         1.271810        -0.771825
 C        -4.162878         0.861746        -2.069718
 O        -4.685366         2.188046        -1.902291
 H         0.519685         0.209780        -2.026065
 H         1.278292         0.887696        -0.637412
 H         1.445243        -0.788582        -0.998132
 H        -3.414149        -0.784512         0.516446
 H        -2.352779        -0.477689         2.584594
 H        -3.525172         2.092881         1.240662
 H        -2.661653         2.008429        -0.179696
 H        -5.623722         0.932287        -0.254681
 H        -3.112629         0.842001        -2.225395
 H        -4.836230         0.292480        -2.715249
