19
Iteration:   971
 C         1.514956         0.006680         0.393129
 C         0.122177        -0.223483         0.040529
 C        -1.094886        -0.181443        -0.164562
 C        -2.556133         0.016003        -0.169858
 O        -3.019289        -0.319543         1.084047
 C        -3.024903         1.386881        -0.680892
 C        -4.581018         1.699825        -0.378970
 C        -5.756130         1.287704        -1.263571
 O        -5.299599         2.592905        -1.371157
 H         1.658983         0.474611         1.428323
 H         2.055008        -0.965487         0.539115
 H         1.979174         0.680317        -0.384444
 H        -3.089953        -0.806559        -0.849622
 H        -2.636776         0.221603         1.835838
 H        -2.322327         2.056719        -0.085867
 H        -2.964963         1.806533        -1.751355
 H        -4.824739         1.947220         0.642080
 H        -5.521064         0.698894        -2.107033
 H        -6.716438         1.189322        -0.741245
