19
Iteration:  2234charge 0 multiplicity 1
 C         1.401048        -0.387502         0.708623
 C         0.130972         0.114306         0.206198
 C        -1.076421         0.159730        -0.218632
 C        -2.472505         0.273483        -0.451703
 O        -3.028976        -0.072618         0.873425
 C        -3.069454         1.585863        -1.027659
 C        -4.439356         1.761341        -0.444157
 C        -5.652216         0.871361        -0.748624
 O        -5.483261         2.244948        -1.385805
 H         1.241189        -1.360793         1.210607
 H         1.948740        -0.929831        -0.097845
 H         1.968800         0.386329         1.245983
 H        -2.765348        -0.585504        -1.166167
 H        -2.247666        -0.141575         1.506952
 H        -2.506211         2.461338        -0.608119
 H        -3.066553         1.513241        -2.142004
 H        -4.401604         2.025128         0.634627
 H        -5.505327         0.189928        -1.552447
 H        -6.339482         0.744053         0.111933
