19
Iteration:  2083
 C         1.415262        -0.049917        -0.245033
 C        -0.011469         0.082081        -0.141803
 C        -1.159395         0.078340         0.212552
 C        -2.610486         0.023884         0.370554
 O        -3.105030        -0.051602         1.703468
 C        -3.045855         1.370773        -0.357361
 C        -4.661140         1.442637        -0.545437
 C        -5.396268         1.078663        -1.781652
 O        -5.075111         2.437400        -1.595617
 H         1.843223        -0.207358         0.810378
 H         1.660711        -0.923952        -0.954835
 H         2.061447         0.805235        -0.684278
 H        -2.966424        -0.890546        -0.152834
 H        -4.076112        -0.303661         1.635171
 H        -2.701524         2.184479         0.236416
 H        -2.628314         1.462074        -1.411884
 H        -5.365778         1.602036         0.291501
 H        -4.854855         0.730434        -2.653640
 H        -6.444746         0.651036        -1.713900
