19
Iteration:  3260charge 0 multiplicity 1
 C         1.321504        -0.001369        -0.506077
 C        -0.051083         0.019108        -0.001858
 C        -1.240280        -0.011345         0.406865
 C        -2.672327         0.012385         0.391688
 O        -3.224106        -0.150464         1.677554
 C        -3.251846         1.349658        -0.248882
 C        -4.653974         1.210794        -0.765685
 C        -4.934818         1.355847        -2.132724
 O        -5.078942         2.504636        -1.219954
 H         1.988213         0.527332         0.178690
 H         1.702669        -1.062008        -0.593957
 H         1.542821         0.655262        -1.406350
 H        -3.015940        -0.872254        -0.216828
 H        -2.615253         0.437341         2.245372
 H        -3.081712         2.264996         0.455526
 H        -2.662073         1.671832        -1.185694
 H        -5.318072         0.821692         0.060450
 H        -4.044810         1.338516        -2.809346
 H        -5.856706         0.918013        -2.486471
