19
Iteration:  3027
 C         0.846901         0.053011        -0.988085
 C        -0.500271         0.174121        -0.369859
 C        -1.634158         0.078889         0.102670
 C        -2.881719         0.006703         0.893537
 O        -2.682140         0.006480         2.315082
 C        -3.870226         1.131176         0.370659
 C        -4.372316         0.978907        -1.050124
 C        -3.832297         1.767069        -2.226283
 O        -5.020802         2.138282        -1.600705
 H         1.345478         1.076590        -1.029233
 H         1.457711        -0.455133        -0.235070
 H         0.705755        -0.423890        -1.994065
 H        -3.302799        -0.975767         0.695839
 H        -2.244650         0.871379         2.539300
 H        -4.629399         1.081463         1.094976
 H        -3.332960         2.082932         0.430420
 H        -4.990248         0.082672        -1.212580
 H        -2.921215         2.355082        -2.079126
 H        -3.902991         1.293241        -3.149690
