19
Iteration:  3611charge 0 multiplicity 1
 C         1.555053        -0.243144         0.439133
 C         0.118817        -0.177952         0.045063
 C        -1.097553         0.061665        -0.117906
 C        -2.540254         0.122285        -0.232595
 O        -3.290875        -0.019354         1.082966
 C        -3.015256         1.513228        -0.649389
 C        -4.516757         1.888906        -0.425530
 C        -5.586689         1.061493        -0.934817
 O        -5.276050         2.125902        -1.657559
 H         1.773715        -1.196535         0.892215
 H         2.194702         0.025310        -0.526977
 H         1.624753         0.536511         1.251633
 H        -2.830969        -0.639316        -0.953206
 H        -2.898627         0.634294         1.632253
 H        -2.412372         2.248925        -0.041021
 H        -2.689717         1.821572        -1.673738
 H        -4.821426         2.682205         0.288371
 H        -5.216796         0.088744        -1.290708
 H        -6.664150         0.957251        -0.638364
