19
Iteration:  1603
 C         0.063050        -0.034576        -1.617881
 C        -0.818283         0.079372        -0.420874
 C        -1.694051         0.176442         0.489167
 C        -2.943673         0.097043         1.184815
 O        -2.691637         0.194322         2.562021
 C        -3.906465         1.120902         0.401159
 C        -3.848618         0.967952        -1.059645
 C        -3.344170         1.927660        -2.052960
 O        -4.719913         1.819976        -1.880510
 H        -0.612955         0.475797        -2.382892
 H         1.103434         0.423921        -1.637736
 H         0.024184        -1.115892        -1.875223
 H        -3.495009        -0.892060         1.022503
 H        -2.264797         0.992595         2.855637
 H        -4.920059         0.959144         0.688927
 H        -3.804000         2.177875         0.736223
 H        -3.884547        -0.075598        -1.384886
 H        -2.740222         2.753871        -1.673197
 H        -2.890062         1.632925        -3.046063
