19
Iteration:  1369charge 0 multiplicity 1
 C         0.812761        -0.123593        -1.050183
 C        -0.442777         0.113329        -0.217582
 C        -1.525508        -0.102795         0.255217
 C        -2.817127         0.052612         0.850227
 O        -2.773900         0.068757         2.324033
 C        -3.594088         1.379973         0.239965
 C        -4.351745         1.027003        -1.008692
 C        -4.026773         1.749418        -2.269910
 O        -5.172832         2.209222        -1.592684
 H         0.443011        -0.957718        -1.776151
 H         1.179486         0.695869        -1.783497
 H         1.687280        -0.628348        -0.482385
 H        -3.503750        -0.852889         0.608898
 H        -1.839422         0.341206         2.526641
 H        -4.377612         1.519691         1.048498
 H        -2.911521         2.220342         0.242521
 H        -4.787340        -0.003300        -0.979698
 H        -3.285229         2.514624        -2.247977
 H        -4.111317         1.143736        -3.158237
