19
Iteration:  3549
 C         1.449538        -0.408340         0.538652
 C         0.034765         0.006982         0.268696
 C        -1.087685         0.288772        -0.095499
 C        -2.491623         0.161768        -0.290115
 O        -3.221531        -0.112634         0.891906
 C        -3.062158         1.535615        -0.879980
 C        -4.434083         1.957675        -0.515674
 C        -5.448687         0.980717        -0.751766
 O        -5.442035         2.145509        -1.562413
 H         1.571921        -1.396431         0.958582
 H         1.925129        -0.538378        -0.419082
 H         2.136969         0.218703         1.031783
 H        -2.686048        -0.692071        -0.989345
 H        -2.564559        -0.137536         1.566823
 H        -2.547283         2.382491        -0.342599
 H        -2.881890         1.413138        -1.941075
 H        -4.451431         2.584588         0.334892
 H        -5.134342         0.147143        -1.407651
 H        -6.284222         0.811150        -0.121026
