19
Iteration:  4033charge 0 multiplicity 1
 C         1.218855        -0.364979        -0.495881
 C        -0.169602        -0.125100        -0.342709
 C        -1.299825         0.158826         0.131928
 C        -2.699907         0.355121         0.624184
 O        -2.788471         0.292283         2.188266
 C        -3.470677         1.597759        -0.000095
 C        -4.721703         1.164702        -0.781062
 C        -4.518616         1.173589        -2.259441
 O        -5.322550         2.177337        -1.609614
 H         1.361750        -0.812882        -1.535615
 H         1.730837         0.573732        -0.428147
 H         1.501392        -1.010887         0.345437
 H        -3.302405        -0.464084         0.126578
 H        -2.555242        -0.618368         2.419847
 H        -3.753079         2.104236         0.900981
 H        -2.929857         2.111212        -0.707836
 H        -5.600387         0.695558        -0.165383
 H        -3.605194         1.536858        -2.742423
 H        -5.127988         0.456802        -2.719050
