19
Iteration:  1493charge 0 multiplicity 1
 C         0.471635        -0.075585        -1.228032
 C        -0.763531         0.070093        -0.416917
 C        -1.884080         0.056168         0.042858
 C        -2.937849         0.052328         1.015100
 O        -2.405362         0.531548         2.279418
 C        -4.244973         0.798509         0.437099
 C        -4.233070         0.867977        -1.089782
 C        -3.352421         1.762836        -1.858915
 O        -4.738827         2.178493        -1.639622
 H         0.250060        -0.165477        -2.383921
 H         1.064426         0.918032        -1.200269
 H         1.068686        -0.989777        -0.929631
 H        -3.283622        -0.998352         1.238495
 H        -1.734521         1.139786         1.880710
 H        -4.968202         0.181227         0.907689
 H        -4.486430         1.845703         0.729313
 H        -4.519208        -0.002314        -1.674908
 H        -2.615477         2.435447        -1.399340
 H        -3.116624         1.486814        -2.936115
