19
Iteration:  4611
 C         0.774954        -0.637278        -0.808234
 C        -0.588678        -0.181414        -0.330874
 C        -1.681099         0.200753         0.083864
 C        -2.940980         0.240137         0.940905
 O        -2.470952         0.569449         2.310033
 C        -3.826113         1.370527         0.221333
 C        -4.065506         1.033251        -1.166763
 C        -4.003506         2.119457        -2.220517
 O        -5.227925         1.663896        -1.590316
 H         1.492599         0.136648        -1.239685
 H         1.314650        -1.112156        -0.065098
 H         0.871487        -1.306887        -1.647935
 H        -3.565385        -0.698533         0.941777
 H        -1.640816         0.220023         2.414723
 H        -4.648257         1.730871         0.942026
 H        -3.171641         2.305522         0.314917
 H        -3.928297        -0.031831        -1.312146
 H        -3.726423         3.142392        -1.890397
 H        -3.842945         1.725967        -3.329638
