19
Iteration:  1512charge 0 multiplicity 1
 C         0.381433        -0.047705        -1.347729
 C        -0.785876         0.007796        -0.528377
 C        -1.817305         0.123300         0.208628
 C        -2.933369         0.026704         1.047311
 O        -2.528432         0.591346         2.354234
 C        -4.179415         0.703032         0.384750
 C        -4.180753         0.888087        -1.144823
 C        -3.342685         1.819995        -1.910582
 O        -4.668410         2.100680        -1.583528
 H         0.157892        -0.061852        -2.403855
 H         0.993369         0.814766        -1.188218
 H         0.856150        -0.981080        -1.108236
 H        -3.016212        -1.025318         1.431514
 H        -1.876608         1.271053         2.169932
 H        -5.228473         0.486775         0.631881
 H        -4.046751         1.648640         0.869420
 H        -4.685330         0.081875        -1.695146
 H        -2.606892         2.353481        -1.364372
 H        -3.080877         1.681183        -2.898196
