19
Iteration:   293
 C         1.467170        -0.309471         0.149532
 C         0.123153         0.175398         0.165374
 C        -1.066738         0.258221        -0.023949
 C        -2.571243         0.057921        -0.134212
 O        -3.202403        -0.657686         0.931537
 C        -3.018254         1.558194        -0.617950
 C        -4.587668         1.782558        -0.279548
 C        -5.427083         1.094828        -1.251368
 O        -5.351059         2.588353        -1.265896
 H         1.437563        -1.219586        -0.476160
 H         2.257544         0.387735        -0.194231
 H         1.718992        -0.757031         1.138503
 H        -2.657860        -0.636132        -0.910441
 H        -3.212700         0.066519         1.618758
 H        -2.356626         2.415311        -0.445436
 H        -3.059064         1.608777        -1.780389
 H        -4.865593         1.982370         0.819347
 H        -5.031268         0.839404        -2.294391
 H        -6.409108         0.602229        -0.965173
