19
Iteration:   545charge 0 multiplicity 1
 C         1.298592         0.002624        -0.580094
 C        -0.135870         0.096072        -0.134622
 C        -1.297606        -0.184625         0.139115
 C        -2.727989         0.068957         0.324020
 O        -3.331822        -0.070983         1.702164
 C        -3.120070         1.440192        -0.135245
 C        -4.546571         1.206120        -0.569108
 C        -4.701083         1.392152        -2.052821
 O        -5.185308         2.457481        -1.117968
 H         1.459732         0.366895        -1.582273
 H         1.906335         0.676512         0.004101
 H         1.754539        -0.969881        -0.616622
 H        -3.270683        -0.729989        -0.192497
 H        -3.055296        -0.942229         2.013490
 H        -2.863021         2.135174         0.590580
 H        -2.397777         1.601109        -0.926412
 H        -5.355523         0.610981         0.039046
 H        -3.788109         1.649111        -2.632221
 H        -5.358423         0.760180        -2.653069
