19
Iteration:  4373charge 0 multiplicity 1
 C         0.449985        -0.250968        -1.270448
 C        -0.720131        -0.002003        -0.468020
 C        -1.695363        -0.041863         0.231670
 C        -2.786688         0.158332         1.105781
 O        -2.722353         0.712425         2.429745
 C        -3.825760         1.206327         0.391676
 C        -4.218560         0.964385        -0.954961
 C        -3.544365         1.517519        -2.106545
 O        -4.885074         1.967774        -1.825578
 H         0.472479         0.309429        -2.230465
 H         1.317456        -0.145718        -0.666321
 H         0.327229        -1.321833        -1.524074
 H        -3.294739        -0.830582         1.146733
 H        -2.013739         1.393985         2.314664
 H        -4.673625         1.281081         1.124168
 H        -3.387937         2.159664         0.556129
 H        -4.637925        -0.009775        -1.366525
 H        -2.799835         2.329440        -1.916056
 H        -3.487377         0.927890        -2.971250
