19
Iteration:   696
 C         1.395539        -0.102170        -0.050583
 C        -0.066119        -0.254130        -0.310386
 C        -1.208285         0.073883        -0.095345
 C        -2.652438         0.101946         0.140154
 O        -2.985094        -0.290480         1.480014
 C        -3.201491         1.555254        -0.064359
 C        -4.708641         1.550351        -0.509681
 C        -5.020203         1.255562        -1.872911
 O        -5.310190         2.529261        -1.296527
 H         1.913085         0.679192        -0.680273
 H         1.609654         0.199868         1.011472
 H         2.019767        -1.020159        -0.224722
 H        -3.257970        -0.622617        -0.405184
 H        -2.655754        -1.208649         1.642875
 H        -3.222933         1.930713         1.030284
 H        -2.689326         2.393798        -0.659336
 H        -5.411774         1.269406         0.329919
 H        -4.189810         1.367953        -2.569260
 H        -5.851499         0.616043        -1.998149
