19
Iteration:  4937
 C         0.737148        -0.093617        -0.981460
 C        -0.642771        -0.010829        -0.459318
 C        -1.683126         0.110824         0.133080
 C        -2.957593         0.195920         0.782000
 O        -2.741690         0.163838         2.241605
 C        -3.835668         1.457458         0.506778
 C        -4.579028         1.452304        -0.759158
 C        -4.254027         0.840922        -2.110768
 O        -4.143054         2.253091        -1.868490
 H         1.527955         0.671547        -0.621330
 H         1.181962        -1.095738        -0.857194
 H         0.902663         0.113229        -2.064782
 H        -3.367483        -0.830746         0.636238
 H        -1.817889         0.218322         2.593409
 H        -4.506337         1.586236         1.365157
 H        -3.173892         2.433389         0.649930
 H        -5.642297         1.626506        -0.559851
 H        -3.368394         0.245546        -2.253652
 H        -4.968876         0.522889        -2.922085
