19
Iteration:  2801
 C         0.385422         0.181500        -1.382727
 C        -0.714980         0.153003        -0.499309
 C        -1.643836         0.040719         0.326090
 C        -2.863651        -0.106710         1.020690
 O        -2.649695         0.214806         2.413110
 C        -4.012251         0.863568         0.390719
 C        -4.048058         0.977765        -1.115926
 C        -3.421371         1.984595        -1.964622
 O        -4.884051         2.041488        -1.685382
 H        -0.047252         0.592216        -2.280151
 H         1.122098         0.942214        -1.066436
 H         0.915001        -0.765105        -1.457920
 H        -3.142110        -1.152675         0.972243
 H        -3.379954        -0.347199         2.720856
 H        -5.059789         0.510658         0.747055
 H        -3.813325         1.891126         0.852937
 H        -4.144260         0.009944        -1.574386
 H        -2.857027         2.849817        -1.537199
 H        -3.204971         1.824410        -3.033413
