19
Iteration:  3575
 C         1.479988        -0.322098         0.466860
 C         0.022112        -0.132714         0.236359
 C        -1.128934         0.051686        -0.015914
 C        -2.525018         0.303102        -0.295613
 O        -3.124388        -0.228492         1.021653
 C        -2.964857         1.721930        -0.887834
 C        -4.421236         1.923736        -0.577000
 C        -5.569156         0.988131        -0.815055
 O        -5.444277         2.131811        -1.587902
 H         1.798112        -1.293550         0.963715
 H         2.126176        -0.253337        -0.389955
 H         1.905708         0.495858         1.115132
 H        -2.959428        -0.424003        -0.978294
 H        -3.109983         0.519850         1.589581
 H        -2.540146         2.497270        -0.382812
 H        -2.670580         1.647200        -1.934664
 H        -4.448855         2.500283         0.399395
 H        -5.299351         0.059515        -1.333937
 H        -6.423440         0.974088        -0.095278
