19
Iteration:   815charge 0 multiplicity 1
 C         1.622802        -0.171988         0.087392
 C         0.149507         0.004404         0.258036
 C        -1.048200         0.106940         0.145883
 C        -2.517303         0.012892        -0.187150
 O        -3.259339        -0.293834         1.093732
 C        -3.040809         1.353900        -0.741199
 C        -4.667818         1.587569        -0.421649
 C        -5.687974         1.245772        -1.416471
 O        -5.260952         2.610366        -1.171212
 H         2.158179         0.815189        -0.025229
 H         2.181428        -0.691499         0.918876
 H         1.941656        -0.767138        -0.803795
 H        -2.546651        -0.718184        -1.036272
 H        -2.805994        -1.072100         1.418840
 H        -2.505773         2.097875        -0.061775
 H        -2.694065         1.615672        -1.766954
 H        -4.966357         1.639019         0.621852
 H        -5.487198         0.864119        -2.423493
 H        -6.679463         1.079476        -1.036522
