19
Iteration:   320
 C         1.451962        -0.230545         0.053632
 C         0.054573         0.007225         0.156965
 C        -1.131467         0.124721         0.073405
 C        -2.578982         0.139734        -0.167564
 O        -3.256537        -0.382596         0.977345
 C        -3.018333         1.616219        -0.543943
 C        -4.539898         1.630937        -0.345252
 C        -5.457297         1.059444        -1.359022
 O        -5.238508         2.519163        -1.223099
 H         1.625436        -0.910839        -0.795653
 H         2.025836         0.678162        -0.140472
 H         1.847893        -0.675015         0.965851
 H        -2.687967        -0.598460        -1.036569
 H        -2.486883        -0.700455         1.525082
 H        -2.715126         2.237044         0.324325
 H        -2.611335         2.088577        -1.390954
 H        -4.875843         1.650791         0.680625
 H        -5.163919         0.760587        -2.321851
 H        -6.409785         0.707159        -1.042290
