19
Iteration:  3280
 C         1.389011        -0.006273        -0.403810
 C        -0.033905         0.068275        -0.086974
 C        -1.183644         0.097837         0.228250
 C        -2.663339         0.027880         0.437580
 O        -3.358184        -0.220283         1.691772
 C        -3.132762         1.247395        -0.317258
 C        -4.649357         1.308608        -0.562844
 C        -5.020102         1.290003        -2.077158
 O        -5.042247         2.510846        -1.289295
 H         2.172631         0.354162         0.211455
 H         1.569884        -1.014143        -0.605769
 H         1.694801         0.615813        -1.254923
 H        -3.012462        -0.777920        -0.248987
 H        -3.564936         0.575187         2.251389
 H        -2.689369         2.169929         0.292663
 H        -2.565707         1.396963        -1.296346
 H        -5.401317         0.749741         0.108223
 H        -4.228912         1.312225        -2.789383
 H        -6.038546         1.152954        -2.439180
