19
Iteration:  2152
 C         1.561763        -0.225359         0.275092
 C         0.084712        -0.098259         0.143017
 C        -1.089395        -0.011600        -0.078191
 C        -2.578439         0.165412        -0.160328
 O        -3.068833        -0.014927         1.204147
 C        -3.103289         1.589281        -0.530608
 C        -4.592605         1.669324        -0.465625
 C        -5.543743         0.881947        -1.287525
 O        -5.400617         2.402352        -1.560811
 H         1.878985        -0.639204         1.237003
 H         2.018969        -0.732921        -0.560365
 H         2.058590         0.741289         0.185139
 H        -3.006870        -0.647482        -0.826435
 H        -2.271866         0.174085         1.805763
 H        -2.620999         2.377751         0.107999
 H        -2.889229         1.912208        -1.575677
 H        -4.890163         1.936480         0.532098
 H        -5.279830         0.071020        -2.036111
 H        -6.360414         0.554608        -0.669807
