19
Iteration:  1362
 C         0.819497        -0.167365        -1.079393
 C        -0.356304         0.088396        -0.234737
 C        -1.492509        -0.083999         0.302879
 C        -2.861687         0.112219         0.803656
 O        -2.838976         0.057541         2.289134
 C        -3.573494         1.411617         0.203735
 C        -4.385769         1.019987        -0.962020
 C        -4.038825         1.752727        -2.275616
 O        -5.188683         2.184173        -1.563245
 H         0.513228        -0.975090        -1.758536
 H         1.101422         0.792504        -1.498666
 H         1.727466        -0.348609        -0.530042
 H        -3.323430        -0.803034         0.621578
 H        -1.972582         0.214857         2.639757
 H        -4.135627         1.518587         1.118183
 H        -2.737405         2.131890         0.108671
 H        -4.747570         0.004692        -0.812594
 H        -3.123129         2.388833        -2.118165
 H        -4.193467         1.195779        -3.201857
