19
Iteration:  2397
 C         1.438875         0.169385         0.298684
 C         0.093249        -0.104853         0.002757
 C        -1.146766        -0.032360         0.020693
 C        -2.568465        -0.091552        -0.210906
 O        -3.286715        -0.328571         1.099563
 C        -3.003234         1.350598        -0.694474
 C        -4.464340         1.763788        -0.448923
 C        -5.613627         1.056422        -1.058824
 O        -5.166635         2.527101        -1.504957
 H         2.210756        -0.550237         0.364203
 H         1.810590         0.821380        -0.478214
 H         1.441939         0.613073         1.283292
 H        -2.994951        -0.854141        -0.775968
 H        -2.832127         0.123570         1.797406
 H        -2.304539         1.896543         0.035431
 H        -2.534426         1.436011        -1.717437
 H        -4.500756         2.350074         0.457043
 H        -5.387416         0.177670        -1.767488
 H        -6.487998         1.055921        -0.382137
