19
Iteration:   612charge 0 multiplicity 1
 C         1.331693        -0.101580        -0.595262
 C         0.064304        -0.048820         0.127410
 C        -1.176113         0.025738         0.275274
 C        -2.679029         0.032637         0.377336
 O        -3.042542        -0.344523         1.793147
 C        -3.271870         1.415370        -0.121952
 C        -4.712354         1.350155        -0.712605
 C        -5.011260         1.437246        -2.187368
 O        -5.237826         2.642971        -1.277731
 H         1.188130         0.519451        -1.466252
 H         2.106108         0.348107        -0.033166
 H         1.643999        -1.078448        -0.902788
 H        -3.074206        -0.647636        -0.370192
 H        -2.375433        -1.033371         1.949991
 H        -3.260101         2.097946         0.630121
 H        -2.754390         1.854755        -0.917377
 H        -5.546801         0.954220        -0.233331
 H        -4.114082         1.446308        -2.830207
 H        -5.870073         1.030616        -2.735570
