19
Iteration:  4441
 C         0.270193        -0.292269        -1.298670
 C        -0.787699        -0.244945        -0.369709
 C        -1.698098         0.142277         0.319975
 C        -2.931528         0.242395         1.166377
 O        -2.573859         0.560484         2.506992
 C        -3.817088         1.402078         0.386153
 C        -3.898098         0.985502        -1.057872
 C        -3.574997         1.972941        -2.204899
 O        -4.973308         1.529896        -1.863155
 H         0.283996         0.487501        -1.953064
 H         1.276155        -0.355330        -0.843969
 H         0.257044        -1.179602        -1.932980
 H        -3.545288        -0.698921         1.149788
 H        -1.754054         1.054373         2.500114
 H        -4.820350         1.511166         0.804089
 H        -3.402448         2.407493         0.507846
 H        -3.683465        -0.130708        -1.316608
 H        -3.381049         2.993630        -2.013949
 H        -3.215997         1.546462        -3.209359
