19
Iteration:  2287charge 0 multiplicity 1
 C         1.519578        -0.281076         0.798330
 C         0.155189        -0.103577         0.136659
 C        -0.958234         0.127637        -0.184259
 C        -2.432023         0.217022        -0.534201
 O        -3.095336        -0.037670         0.813727
 C        -3.186622         1.500828        -1.021323
 C        -4.435445         1.807000        -0.357073
 C        -5.608029         1.027218        -0.686995
 O        -5.553639         2.230891        -1.417782
 H         1.559030        -1.208737         1.292128
 H         2.402603        -0.195652         0.199138
 H         1.460226         0.633978         1.351340
 H        -2.735629        -0.638038        -1.231337
 H        -2.808444        -0.897824         1.240040
 H        -2.447989         2.482612        -1.025850
 H        -3.353407         1.363296        -2.120090
 H        -4.323823         2.318802         0.622399
 H        -5.514042         0.086758        -1.274393
 H        -6.510130         1.020883         0.030906
