19
Iteration:  1480
 C         0.520858        -0.053249        -1.167573
 C        -0.682411         0.064991        -0.454780
 C        -1.852013        -0.055594        -0.008545
 C        -2.965382         0.106043         0.952589
 O        -2.395227         0.516195         2.189603
 C        -4.274221         0.851647         0.501274
 C        -4.296210         0.925945        -1.019861
 C        -3.387240         1.772948        -1.836280
 O        -4.769432         2.137465        -1.687161
 H         0.315083        -0.311629        -2.245768
 H         1.195032         0.824666        -1.030452
 H         1.168494        -0.833168        -0.712913
 H        -3.231291        -1.008592         1.142106
 H        -1.675768         1.160616         2.247327
 H        -5.263891         0.440302         0.633039
 H        -4.080070         1.763869         1.024963
 H        -4.747576         0.022866        -1.449814
 H        -2.704669         2.269877        -1.188686
 H        -3.082735         1.459132        -2.786954
