19
Iteration:  4255charge 0 multiplicity 1
 C         0.677147        -0.073461        -1.028288
 C        -0.687095         0.039513        -0.470131
 C        -1.754378         0.193518         0.132310
 C        -2.977784         0.227844         0.787769
 O        -2.648583         0.381608         2.305697
 C        -3.746638         1.424750         0.432730
 C        -4.526986         1.111512        -0.783122
 C        -3.873667         0.882218        -2.088446
 O        -4.539937         2.156110        -1.798668
 H         0.628382         0.293548        -1.998851
 H         1.288180         0.598184        -0.416835
 H         1.098575        -1.112637        -1.030455
 H        -3.535727        -0.710472         0.760011
 H        -1.723495         0.273732         2.457478
 H        -4.299409         2.011861         1.176224
 H        -3.186273         2.227886         0.008616
 H        -5.433342         0.419560        -0.615290
 H        -2.726844         1.012737        -2.148058
 H        -4.401332         0.312183        -2.823453
