19
Iteration:  2372
 C         1.458222         0.136144         0.413384
 C         0.024936        -0.012453         0.250149
 C        -1.148412        -0.194661        -0.185084
 C        -2.581664         0.018690        -0.269765
 O        -3.222934        -0.301883         0.989766
 C        -3.026475         1.501602        -0.828119
 C        -4.394665         1.777815        -0.364818
 C        -5.548784         1.068142        -0.938421
 O        -5.242196         2.386967        -1.485977
 H         1.993112        -0.887358         0.459707
 H         1.810520         0.545349        -0.560126
 H         1.899071         0.572859         1.351871
 H        -3.156497        -0.614843        -0.908732
 H        -2.672201        -0.043505         1.764777
 H        -2.243859         2.197450        -0.702559
 H        -3.132142         1.216724        -1.817075
 H        -4.518532         2.335887         0.596857
 H        -5.448724         0.224446        -1.641078
 H        -6.488292         1.132848        -0.291647
