19
Iteration:  4165
 C         0.870893         0.038707        -0.987969
 C        -0.372565        -0.086203        -0.289478
 C        -1.548521         0.011726         0.168595
 C        -2.862731         0.212050         0.804877
 O        -2.947348         0.405458         2.199419
 C        -3.533263         1.490543         0.207649
 C        -4.537155         1.189067        -0.746943
 C        -4.329200         0.824600        -2.132406
 O        -4.635279         2.215339        -1.698634
 H         0.678359         0.107910        -2.058411
 H         1.396534         0.905133        -0.712256
 H         1.546041        -0.792609        -0.910605
 H        -3.531802        -0.584787         0.420801
 H        -2.475408        -0.325846         2.685584
 H        -3.939580         2.088451         1.062900
 H        -2.683664         1.984217        -0.141814
 H        -5.559363         0.951579        -0.186178
 H        -3.307637         0.778965        -2.332949
 H        -5.032869         0.389159        -2.853114
