19
Iteration:  4885charge 0 multiplicity 1
 C         0.834959        -0.228817        -0.895053
 C        -0.405074        -0.033940        -0.228690
 C        -1.564305         0.077983         0.069390
 C        -2.859866         0.234330         0.707808
 O        -2.809683         0.224886         2.147389
 C        -3.689659         1.469986         0.472173
 C        -4.632321         1.391095        -0.708006
 C        -4.346809         0.923889        -2.169996
 O        -4.460009         2.361653        -1.878015
 H         1.596746         0.567293        -0.706765
 H         1.349373        -1.131532        -0.731848
 H         0.733120        -0.200342        -2.010909
 H        -3.383356        -0.787868         0.615245
 H        -2.369002        -0.510465         2.495115
 H        -4.348875         1.512343         1.314047
 H        -3.051926         2.325215         0.531699
 H        -5.698452         1.262991        -0.457637
 H        -3.276765         0.685166        -2.474568
 H        -5.250575         0.487617        -2.588027
