19
Iteration:   982
 C         1.568139        -0.040795         0.339741
 C         0.137229        -0.178952        -0.032313
 C        -1.068019        -0.131737        -0.063727
 C        -2.541453         0.048926        -0.185718
 O        -3.162321        -0.364884         1.152663
 C        -3.057118         1.471674        -0.705717
 C        -4.598597         1.687027        -0.461478
 C        -5.739729         1.234393        -1.221876
 O        -5.228915         2.589572        -1.329661
 H         1.497261         0.431783         1.372969
 H         2.147453        -1.000003         0.329764
 H         2.179506         0.667783        -0.290418
 H        -2.854143        -0.838637        -0.895658
 H        -2.728266         0.239301         1.768007
 H        -2.647634         2.330391        -0.097508
 H        -2.551814         1.400804        -1.718775
 H        -4.851302         1.883624         0.573143
 H        -5.559563         0.641129        -2.077693
 H        -6.776473         1.147448        -0.912126
