19
Iteration:  1524
 C         0.341850        -0.060626        -1.437381
 C        -0.801997         0.011130        -0.591766
 C        -1.717687         0.061043         0.268801
 C        -2.875846         0.002178         1.098180
 O        -2.686091         0.627567         2.380671
 C        -4.121787         0.763879         0.406333
 C        -4.116506         0.810507        -1.131516
 C        -3.296583         1.797222        -1.890887
 O        -4.730409         2.172540        -1.592005
 H         0.139714         0.040084        -2.520307
 H         1.001423         0.756556        -1.117887
 H         1.010546        -0.902532        -1.270268
 H        -3.195123        -1.089052         1.148487
 H        -2.091873         1.377568         2.217801
 H        -4.890058         0.202034         0.893102
 H        -4.145446         1.819713         0.613844
 H        -4.381503        -0.083229        -1.700993
 H        -2.585564         2.353398        -1.330892
 H        -3.119492         1.698484        -2.923228
