19
Iteration:  2606charge 0 multiplicity 1
 C         1.268794        -0.199386        -0.501103
 C        -0.132568         0.053626        -0.260327
 C        -1.258853         0.169356         0.227159
 C        -2.662800         0.117449         0.497770
 O        -2.899295        -0.230347         1.919175
 C        -3.450911         1.397960         0.168360
 C        -4.551099         1.207287        -0.915943
 C        -4.582543         1.676657        -2.295712
 O        -5.498248         2.299620        -1.329958
 H         1.277722        -0.610870        -1.523705
 H         1.827809         0.767307        -0.571837
 H         1.611916        -1.003983         0.174797
 H        -3.069238        -0.613643        -0.198997
 H        -2.024290        -0.380053         2.333688
 H        -4.059251         1.524854         1.032646
 H        -2.886895         2.267942         0.029936
 H        -5.040404         0.260576        -0.765880
 H        -3.730647         2.240312        -2.700808
 H        -5.112286         0.957052        -2.998880
