19
Iteration:   813charge 0 multiplicity 1
 C         1.633212        -0.179620         0.083315
 C         0.161337         0.019033         0.237774
 C        -1.053688         0.107386         0.155078
 C        -2.522682         0.006130        -0.168014
 O        -3.269396        -0.296855         1.090424
 C        -3.040564         1.365275        -0.734062
 C        -4.650927         1.585260        -0.431095
 C        -5.685621         1.252243        -1.419869
 O        -5.262672         2.596336        -1.166431
 H         2.177368         0.777548        -0.039594
 H         2.141610        -0.684296         0.954439
 H         1.941144        -0.771031        -0.805570
 H        -2.540207        -0.671061        -1.053172
 H        -2.804435        -1.098529         1.457407
 H        -2.521738         2.118960        -0.075194
 H        -2.754867         1.613104        -1.741338
 H        -5.037284         1.681253         0.644910
 H        -5.453307         0.831541        -2.462537
 H        -6.733350         1.142335        -1.076758
