19
Iteration:   483charge 0 multiplicity 1
 C         1.394822         0.017786        -0.393426
 C        -0.032524        -0.186122        -0.168692
 C        -1.192504        -0.051178         0.113546
 C        -2.563984         0.072512         0.416724
 O        -2.963082        -0.395927         1.790376
 C        -3.293252         1.444280        -0.092362
 C        -4.788446         1.432699        -0.651307
 C        -5.140608         1.371868        -2.067620
 O        -5.108715         2.600113        -1.387082
 H         1.539974         0.310607        -1.467968
 H         1.679919         0.915831         0.219233
 H         2.081949        -0.814894        -0.115654
 H        -2.890882        -0.613066        -0.362679
 H        -3.916836        -0.286703         1.750774
 H        -3.404316         2.114242         0.829856
 H        -2.579261         1.852442        -0.813952
 H        -5.512724         1.323362         0.025009
 H        -4.358515         1.453280        -2.830764
 H        -6.078060         0.839171        -2.291743
