19
Iteration:  2611
 C         1.290104        -0.203276        -0.539268
 C        -0.132005         0.026058        -0.269624
 C        -1.269370         0.162861         0.220877
 C        -2.639229         0.143119         0.545426
 O        -2.901482        -0.217857         1.917962
 C        -3.513449         1.411606         0.198023
 C        -4.561434         1.151927        -0.934601
 C        -4.555825         1.699281        -2.299081
 O        -5.497403         2.304467        -1.334688
 H         1.440732        -0.559725        -1.575124
 H         1.973605         0.652343        -0.500259
 H         1.585923        -0.896736         0.259235
 H        -2.992653        -0.728888        -0.085672
 H        -2.019212        -0.517850         2.246693
 H        -4.265852         1.613848         1.043241
 H        -2.865938         2.391785        -0.034686
 H        -5.073879         0.165196        -0.727730
 H        -3.772720         2.317154        -2.751293
 H        -5.060474         1.071028        -2.987551
