19
Iteration:  2417charge 0 multiplicity 1
 C         1.499817         0.243327         0.185290
 C         0.093161        -0.068511        -0.107577
 C        -1.154156        -0.136742         0.045095
 C        -2.625416        -0.011178         0.014364
 O        -3.325327        -0.394321         1.163957
 C        -2.968450         1.356282        -0.574525
 C        -4.429855         1.728085        -0.445820
 C        -5.662953         1.195127        -1.269226
 O        -5.101310         2.432031        -1.502735
 H         2.103551        -0.704368         0.223044
 H         1.889592         1.032845        -0.479291
 H         1.472502         0.469275         1.284550
 H        -2.914786        -0.681545        -0.755324
 H        -2.936122         0.126622         1.928442
 H        -2.407850         2.099894        -0.007854
 H        -2.690708         1.401424        -1.580173
 H        -4.622855         1.995221         0.613265
 H        -5.514192         0.445231        -2.110049
 H        -6.578171         1.114832        -0.626191
