19
Iteration:  3587
 C         1.558162        -0.264390         0.494798
 C         0.095148        -0.197415         0.174943
 C        -1.071988        -0.019555        -0.129291
 C        -2.581502         0.294081        -0.162360
 O        -3.181810        -0.159865         1.012706
 C        -3.010343         1.709572        -0.815522
 C        -4.487996         1.855297        -0.561279
 C        -5.552416         0.945072        -0.801044
 O        -5.347422         2.190045        -1.632925
 H         1.730548        -1.299406         0.904330
 H         1.929830        -0.188133        -0.559664
 H         1.886742         0.546679         1.236174
 H        -2.900592        -0.373657        -0.954541
 H        -3.385684         0.491785         1.745520
 H        -2.458399         2.493746        -0.466411
 H        -2.804057         1.833257        -1.902601
 H        -4.847339         2.652661         0.191364
 H        -5.626023         0.040661        -1.369169
 H        -6.442002         1.027489        -0.069319
