19
Iteration:  4497charge 0 multiplicity 1
 C         0.387983        -0.453645        -1.320155
 C        -0.657839        -0.156816        -0.409544
 C        -1.587635         0.089323         0.412216
 C        -2.973042         0.221984         1.117244
 O        -2.726965         0.814685         2.500850
 C        -3.686768         1.185978         0.295766
 C        -3.834243         0.982135        -1.183719
 C        -3.771337         2.139157        -2.086153
 O        -5.047244         1.492205        -1.783544
 H         0.568438         0.320010        -1.956468
 H         1.301463        -0.742854        -0.757774
 H         0.048506        -1.264649        -1.935677
 H        -3.597330        -0.702914         1.236306
 H        -2.082143         0.214093         2.847039
 H        -4.635972         1.400265         0.699665
 H        -3.071287         2.097647         0.364622
 H        -3.617747         0.070728        -1.790355
 H        -3.627487         3.163335        -1.670577
 H        -3.414768         2.025230        -3.132364
