19
Iteration:  3976
 C         1.266845        -0.438700        -0.318155
 C        -0.098138        -0.045858        -0.025014
 C        -1.318414         0.082595        -0.152600
 C        -2.723759         0.326959         0.525494
 O        -2.693598         0.385535         1.930013
 C        -3.487344         1.509390         0.045554
 C        -4.614759         1.124571        -0.822652
 C        -4.729458         1.260873        -2.301306
 O        -5.403868         2.191075        -1.441020
 H         1.271199        -1.195181        -1.130249
 H         2.003782         0.375991        -0.458483
 H         1.491017        -0.953827         0.562755
 H        -3.314792        -0.591675         0.351482
 H        -2.072302        -0.208894         2.447875
 H        -3.895081         2.073363         0.859203
 H        -2.825572         2.290775        -0.449070
 H        -5.425978         0.554374        -0.287503
 H        -3.844213         1.564520        -2.941655
 H        -5.364426         0.633720        -2.923306
