19
Iteration:  3771charge 0 multiplicity 1
 C         1.274799        -0.154221        -0.415947
 C        -0.032637         0.076248         0.142805
 C        -1.230566        -0.017106         0.325301
 C        -2.698998         0.018732         0.365224
 O        -3.148522         0.186139         1.800669
 C        -3.052464         1.310044        -0.503775
 C        -4.657530         1.442265        -0.624828
 C        -5.106125         1.088658        -1.937475
 O        -5.123796         2.462060        -1.505311
 H         1.443002        -1.175570        -0.819662
 H         1.598999         0.472983        -1.182520
 H         2.153210        -0.043512         0.237627
 H        -3.153782        -0.858296        -0.073206
 H        -2.722286        -0.519942         2.292288
 H        -2.543287         2.327685        -0.202145
 H        -2.624554         1.002702        -1.469023
 H        -5.169735         1.305941         0.357490
 H        -4.458450         0.828983        -2.744588
 H        -6.125155         0.723732        -2.057819
