19
Iteration:  3211charge 0 multiplicity 1
 C         1.331245         0.016557        -0.485783
 C        -0.070046        -0.134227        -0.025846
 C        -1.280191        -0.123891         0.145312
 C        -2.745986         0.095019         0.504840
 O        -2.969519        -0.063156         1.991675
 C        -3.247340         1.406106        -0.103824
 C        -4.626116         1.246132        -0.887494
 C        -4.770570         1.508344        -2.297026
 O        -5.359572         2.402065        -1.315964
 H         1.924530         0.819959        -0.009420
 H         1.883062        -0.900427        -0.521363
 H         1.282209         0.460217        -1.440163
 H        -3.322731        -0.782257         0.189873
 H        -3.093329        -0.988942         2.005502
 H        -3.386019         2.126811         0.699256
 H        -2.480505         1.903609        -0.686907
 H        -5.192238         0.451296        -0.415770
 H        -3.860917         1.950732        -2.769861
 H        -5.581171         0.961065        -2.778710
