19
Iteration:  4471
 C         0.332200        -0.382439        -1.320403
 C        -0.688278        -0.074648        -0.441546
 C        -1.624549        -0.153907         0.319933
 C        -2.862872         0.208069         1.115135
 O        -2.760747         0.741824         2.481575
 C        -3.751844         1.401462         0.442817
 C        -3.818529         1.028764        -1.030850
 C        -3.738579         2.035460        -2.151252
 O        -4.965857         1.490458        -1.883721
 H         0.508437         0.395665        -2.145037
 H         1.241190        -0.609962        -0.763978
 H        -0.010581        -1.299752        -1.895700
 H        -3.603497        -0.606092         1.161990
 H        -1.883088         0.872396         2.870382
 H        -4.730148         1.156017         0.947811
 H        -3.463377         2.373183         0.727907
 H        -3.652638         0.012052        -1.404441
 H        -3.593195         3.048756        -1.855541
 H        -3.344733         1.771781        -3.131956
