19
Iteration:  1003
 C         1.579340        -0.132730         0.207589
 C         0.139871        -0.024443        -0.039287
 C        -1.101917         0.075672         0.020014
 C        -2.606624         0.083127        -0.036699
 O        -3.327389        -0.338152         1.086515
 C        -3.031316         1.388349        -0.673473
 C        -4.534449         1.630178        -0.422616
 C        -5.589481         1.188465        -1.273148
 O        -5.179984         2.555663        -1.320160
 H         1.816705         0.096794         1.304266
 H         1.910845        -1.168108        -0.075587
 H         2.184324         0.590082        -0.423810
 H        -2.712140        -0.888038        -0.654386
 H        -3.034654        -0.032930         1.952611
 H        -2.374074         2.178596        -0.240574
 H        -2.878906         1.363543        -1.779617
 H        -4.997850         1.738942         0.478189
 H        -5.511773         0.744354        -2.236404
 H        -6.550613         0.987219        -0.725906
