19
Iteration:  1370
 C         0.809758        -0.118608        -1.045313
 C        -0.449359         0.114661        -0.218127
 C        -1.527718        -0.103055         0.248614
 C        -2.815718         0.043262         0.856697
 O        -2.764136         0.071375         2.326675
 C        -3.596973         1.369427         0.252239
 C        -4.345188         1.035139        -1.017517
 C        -4.024702         1.744921        -2.267131
 O        -5.171647         2.208038        -1.594564
 H         0.446777        -0.957598        -1.786350
 H         1.175412         0.678840        -1.798183
 H         1.661118        -0.648648        -0.478145
 H        -3.506610        -0.818507         0.608640
 H        -1.852395         0.351388         2.506480
 H        -4.397197         1.543270         1.026106
 H        -2.945612         2.238724         0.245675
 H        -4.809421         0.020714        -1.025575
 H        -3.291109         2.519379        -2.282185
 H        -4.105829         1.164433        -3.154128
