19
Iteration:  1636
 C         0.156964        -0.022558        -1.589819
 C        -0.949365         0.197517        -0.557586
 C        -1.687375         0.091225         0.379627
 C        -2.899578         0.101127         1.169343
 O        -2.864295         0.201481         2.574094
 C        -3.781951         1.272618         0.540995
 C        -3.885411         1.032496        -0.951795
 C        -3.315970         1.945496        -2.083058
 O        -4.733407         1.661078        -1.919927
 H        -0.137577         0.567859        -2.546551
 H         1.274037         0.118120        -1.448247
 H         0.023331        -1.059512        -2.008653
 H        -3.544203        -0.862957         1.062147
 H        -1.955688         0.024223         2.804642
 H        -4.766815         1.105812         0.899870
 H        -3.268843         2.261570         0.758957
 H        -3.795352        -0.057187        -1.055341
 H        -3.002831         2.865936        -1.567450
 H        -2.898643         1.403565        -2.970473
