19
Iteration:  3698charge 0 multiplicity 1
 C         1.406107        -0.050797        -0.027798
 C        -0.001543        -0.209220         0.016607
 C        -1.204277        -0.069718         0.111778
 C        -2.657320         0.057997         0.137266
 O        -3.119252         0.047203         1.494877
 C        -3.049745         1.485115        -0.423570
 C        -4.608437         1.740261        -0.518175
 C        -5.491398         1.039851        -1.443219
 O        -5.024302         2.322530        -1.774880
 H         2.041513        -0.904079        -0.084152
 H         1.846060         0.584081        -0.876301
 H         1.815455         0.507845         0.850494
 H        -3.141948        -0.792733        -0.398697
 H        -2.843324        -0.637770         2.070380
 H        -2.558026         2.135151         0.280477
 H        -2.798899         1.686036        -1.490588
 H        -5.109612         2.050784         0.396169
 H        -5.094931         0.102141        -1.963176
 H        -6.573777         1.026196        -1.290148
