19
Iteration:  1785
 C         0.843692        -0.112887        -0.897238
 C        -0.562921        -0.130627        -0.489145
 C        -1.639223         0.096913         0.029706
 C        -2.861814         0.120068         0.828280
 O        -2.529739         0.335580         2.229245
 C        -3.987458         1.132497         0.415228
 C        -4.519419         1.013099        -0.967730
 C        -3.803424         1.623981        -2.130865
 O        -4.950702         2.192258        -1.593793
 H         1.215620         0.906858        -0.810348
 H         1.344847        -0.764996        -0.166541
 H         1.139453        -0.488215        -1.883693
 H        -3.376568        -0.843220         0.842086
 H        -1.967089         1.125652         2.239156
 H        -4.833324         0.928389         1.111460
 H        -3.637883         2.143156         0.583091
 H        -5.120714         0.109285        -1.250916
 H        -2.820783         2.039988        -1.937557
 H        -3.876969         1.075441        -3.077130
