19
Iteration:  3980charge 0 multiplicity 1
 C         1.265108        -0.443122        -0.323094
 C        -0.124488        -0.028101        -0.017343
 C        -1.316506         0.093745        -0.190259
 C        -2.716424         0.314104         0.543704
 O        -2.696337         0.391087         1.959048
 C        -3.477120         1.531332         0.056009
 C        -4.587145         1.143366        -0.827673
 C        -4.730792         1.229920        -2.323096
 O        -5.398629         2.198387        -1.443351
 H         1.148320        -1.157885        -1.202129
 H         1.915373         0.413367        -0.472636
 H         1.542774        -1.025948         0.651515
 H        -3.305912        -0.610454         0.253835
 H        -2.163724        -0.291776         2.367887
 H        -3.902486         1.961247         0.991443
 H        -2.850998         2.134810        -0.486615
 H        -5.305339         0.473922        -0.372631
 H        -3.867178         1.580638        -2.883751
 H        -5.437328         0.605891        -2.845662
