19
Iteration:  3496
 C         1.546732        -0.363968         0.605534
 C         0.157907        -0.083101         0.102778
 C        -1.063057         0.192779        -0.036095
 C        -2.446612         0.159434        -0.398172
 O        -3.152930         0.032093         0.959737
 C        -2.977640         1.567730        -0.876288
 C        -4.493275         1.806833        -0.499482
 C        -5.658727         0.929891        -0.781369
 O        -5.455805         2.241659        -1.529094
 H         1.450425        -1.109237         1.513177
 H         2.247252        -0.770802        -0.124781
 H         1.922570         0.556551         1.121159
 H        -2.750716        -0.729973        -0.944145
 H        -3.845529        -0.591870         0.806635
 H        -2.472287         2.320416        -0.327932
 H        -2.723979         1.766789        -1.920221
 H        -4.652961         2.371171         0.419883
 H        -5.694811         0.029450        -1.455315
 H        -6.520377         0.863564        -0.147054
