19
Iteration:  2977
 C         0.455851         0.408616        -1.272539
 C        -0.630054        -0.055616        -0.390493
 C        -1.713428        -0.093783         0.199305
 C        -2.964783        -0.075348         0.955961
 O        -2.703770         0.243925         2.363418
 C        -3.799593         1.126692         0.452032
 C        -4.138226         0.891384        -1.075360
 C        -3.471207         1.744715        -2.026847
 O        -4.911838         2.077842        -1.716697
 H         0.359689         1.441092        -1.547442
 H         1.410062         0.299644        -0.764288
 H         0.270870        -0.162245        -2.145168
 H        -3.387378        -1.080419         0.772810
 H        -2.975143        -0.516254         2.937148
 H        -4.808974         1.118153         1.020826
 H        -3.223661         2.080339         0.638567
 H        -4.524967        -0.100101        -1.296674
 H        -2.728816         2.472481        -1.654654
 H        -3.386491         1.524368        -3.131774
