19
Iteration:  1708
 C         0.408821         0.083062        -1.401627
 C        -0.676868        -0.098312        -0.375449
 C        -1.608390        -0.119354         0.422934
 C        -2.864462         0.010079         1.085347
 O        -2.708849         0.442872         2.468712
 C        -3.777002         1.067349         0.401230
 C        -4.131087         1.044312        -1.140350
 C        -3.536335         1.855594        -2.252355
 O        -4.938863         1.998276        -1.688047
 H         0.380458         1.058045        -1.844465
 H         1.385819        -0.133073        -0.977574
 H         0.244320        -0.674669        -2.187726
 H        -3.414523        -0.865609         1.119589
 H        -2.685792        -0.310386         3.036931
 H        -4.838181         0.984156         0.815278
 H        -3.275658         1.980644         0.637819
 H        -4.613545         0.058978        -1.324721
 H        -3.142490         2.829780        -2.062362
 H        -3.432622         1.492649        -3.290211
