19
Iteration:  2898
 C        -0.046164         0.419458        -1.747876
 C        -0.863323         0.302563        -0.427668
 C        -1.714554         0.075118         0.367167
 C        -3.002052        -0.058470         1.214040
 O        -2.735393         0.030719         2.625720
 C        -4.014489         0.881898         0.433664
 C        -3.921955         0.864492        -1.123188
 C        -3.120528         1.799869        -1.950256
 O        -4.489071         2.004992        -1.849277
 H        -0.668592         1.139632        -2.234344
 H         0.956493         0.717704        -1.577280
 H         0.116824        -0.549245        -2.243341
 H        -3.239925        -1.116042         0.972208
 H        -2.927890         0.918839         3.035368
 H        -5.109753         0.652459         0.503323
 H        -3.981504         1.948314         0.877758
 H        -4.140077        -0.124473        -1.527265
 H        -2.525786         2.446547        -1.283111
 H        -2.659232         1.553175        -2.845375
