19
Iteration:  1333charge 0 multiplicity 1
 C         0.912191        -0.131212        -1.052576
 C        -0.331996        -0.220642        -0.286226
 C        -1.346220         0.178471         0.356487
 C        -2.787402         0.175439         0.735262
 O        -3.092908         0.047835         2.139720
 C        -3.483471         1.435075         0.194739
 C        -4.357247         1.111631        -0.909554
 C        -4.138909         1.609783        -2.250353
 O        -5.195424         2.173277        -1.393760
 H         0.951542        -1.003850        -1.748503
 H         0.945761         0.826045        -1.622561
 H         1.822125        -0.177724        -0.419548
 H        -3.120939        -0.875566         0.334118
 H        -2.329246        -0.009977         2.792680
 H        -4.001537         1.711736         1.147082
 H        -2.768430         2.284989        -0.029829
 H        -4.833635         0.116015        -0.784679
 H        -3.279284         2.315531        -2.599807
 H        -4.382277         0.962755        -3.168053
