19
Iteration:  3959
 C         1.331875        -0.459971        -0.253943
 C        -0.122419        -0.112669        -0.184207
 C        -1.297018         0.090927         0.129736
 C        -2.698095         0.271054         0.450873
 O        -2.660552         0.400974         1.912696
 C        -3.519073         1.538060        -0.057866
 C        -4.770114         1.117403        -0.797123
 C        -4.704102         1.292236        -2.275838
 O        -5.433810         2.229868        -1.440178
 H         1.411560        -1.148291        -1.133435
 H         1.814164         0.489160        -0.470408
 H         1.717060        -0.901646         0.765236
 H        -3.201232        -0.648671         0.073614
 H        -1.711065         0.089318         2.137696
 H        -3.774277         1.939546         0.963371
 H        -2.942146         2.164159        -0.711421
 H        -5.365522         0.283194        -0.471143
 H        -3.767427         1.695767        -2.626262
 H        -5.325911         0.706334        -2.953355
