19
Iteration:  3507charge 0 multiplicity 1
 C         1.436829        -0.384564         0.577090
 C         0.202251         0.008030         0.120736
 C        -1.038780         0.112876         0.014414
 C        -2.475962         0.281999        -0.324354
 O        -3.162718         0.054023         0.878593
 C        -3.038752         1.539371        -0.896879
 C        -4.474853         1.748564        -0.480539
 C        -5.647089         0.982422        -0.803092
 O        -5.398737         2.165774        -1.499099
 H         1.294914        -1.264450         1.341143
 H         2.205043        -0.725496        -0.111708
 H         1.962750         0.463565         1.072888
 H        -2.644715        -0.471219        -1.098955
 H        -3.644213        -0.815280         0.750728
 H        -2.473107         2.271806        -0.377250
 H        -2.992921         1.653516        -1.975210
 H        -4.510079         2.399424         0.382647
 H        -5.417709        -0.014946        -1.265896
 H        -6.359189         1.123000        -0.043134
