19
Iteration:  2012
 C         1.075041         0.239006        -0.711990
 C        -0.093315        -0.181783        -0.022892
 C        -1.285517        -0.074996         0.372338
 C        -2.723641         0.001021         0.571567
 O        -3.079660         0.014795         1.991814
 C        -3.203948         1.349387        -0.230703
 C        -4.567371         1.290414        -0.728585
 C        -4.881271         1.128959        -2.186784
 O        -4.963584         2.423493        -1.444199
 H         1.875962         0.497182         0.008152
 H         1.400516        -0.688812        -1.253864
 H         0.985977         1.054019        -1.486025
 H        -3.302258        -0.845272         0.265657
 H        -3.211576         0.997133         2.224359
 H        -3.124723         2.197716         0.531565
 H        -2.559414         1.601493        -1.062813
 H        -5.260857         0.800445        -0.019936
 H        -4.061041         1.049531        -2.927771
 H        -5.877597         0.883538        -2.508987
