19
Iteration:   979
 C         1.561841        -0.026825         0.351208
 C         0.132635        -0.194118        -0.015462
 C        -1.074577        -0.153264        -0.086259
 C        -2.554152         0.047559        -0.192407
 O        -3.125264        -0.358054         1.137897
 C        -3.037663         1.458067        -0.712376
 C        -4.608133         1.686696        -0.441745
 C        -5.740001         1.259328        -1.212324
 O        -5.249022         2.581122        -1.339705
 H         1.515773         0.438412         1.371272
 H         2.111268        -0.990187         0.399882
 H         2.135927         0.686547        -0.289282
 H        -2.818229        -0.823594        -0.815762
 H        -2.704565         0.251300         1.821840
 H        -2.577863         2.239931        -0.109861
 H        -2.594202         1.508086        -1.693213
 H        -4.930624         1.895374         0.518099
 H        -5.478980         0.681188        -2.125918
 H        -6.828217         1.198268        -0.890388
