19
Iteration:  3689
 C         1.438637        -0.052956         0.026033
 C        -0.030261        -0.173698         0.049397
 C        -1.253935        -0.046687         0.123379
 C        -2.671207         0.020631         0.091799
 O        -3.057695         0.035126         1.450565
 C        -3.076126         1.427043        -0.460321
 C        -4.580099         1.850332        -0.483623
 C        -5.468614         1.033491        -1.370555
 O        -5.081965         2.308802        -1.800357
 H         1.850457        -1.056399        -0.037438
 H         1.671029         0.531765        -0.965321
 H         1.778829         0.496376         0.912629
 H        -3.080085        -0.743953        -0.562818
 H        -2.673756        -0.758564         1.810687
 H        -2.707902         2.094970         0.199786
 H        -2.532968         1.417941        -1.408410
 H        -5.019791         2.346373         0.347160
 H        -4.865612         0.293552        -1.971645
 H        -6.482542         0.774631        -1.190706
