19
Iteration:  4761charge 0 multiplicity 1
 C         1.034467        -0.441832        -0.722938
 C        -0.377442        -0.145583        -0.210169
 C        -1.503710         0.021645         0.292313
 C        -2.867897         0.138025         0.768824
 O        -2.683770         0.346421         2.186397
 C        -3.552683         1.429384         0.148476
 C        -4.590964         1.097979        -0.958476
 C        -4.310318         1.538174        -2.336198
 O        -5.141981         2.340663        -1.599017
 H         1.784682         0.369487        -0.681276
 H         1.664841        -1.182783        -0.134705
 H         1.145228        -0.898323        -1.708565
 H        -3.394205        -0.854569         0.582548
 H        -1.773701         0.215368         2.305804
 H        -3.945332         2.037095         0.898591
 H        -2.719814         1.884455        -0.452472
 H        -5.414397         0.362861        -0.905909
 H        -3.331004         1.909239        -2.545195
 H        -4.782343         1.115955        -3.253077
