19
Iteration:   505
 C         1.342288         0.025353        -0.499505
 C        -0.088541        -0.079201        -0.045885
 C        -1.298246        -0.067692         0.193265
 C        -2.770190        -0.022436         0.295931
 O        -2.967349        -0.239617         1.728918
 C        -3.120226         1.422175        -0.050899
 C        -4.618127         1.398453        -0.664194
 C        -4.979810         1.341426        -2.062118
 O        -5.192178         2.571461        -1.300617
 H         1.368422         0.341305        -1.585272
 H         1.743014         0.857696         0.107554
 H         1.975828        -0.891469        -0.384492
 H        -3.255626        -0.636425        -0.483422
 H        -3.836125        -0.668596         1.964022
 H        -3.191326         2.050289         0.897574
 H        -2.423536         1.899253        -0.746449
 H        -5.258872         0.798432        -0.154490
 H        -4.241586         1.499924        -2.875579
 H        -5.923088         0.815673        -2.310241
