19
Iteration:  1016charge 0 multiplicity 1
 C         1.526205        -0.183840         0.067861
 C         0.090084         0.090381         0.085949
 C        -1.131412         0.143243         0.100935
 C        -2.522117         0.017795        -0.077823
 O        -3.391153        -0.313679         1.098414
 C        -3.051679         1.346829        -0.665991
 C        -4.490462         1.637103        -0.336752
 C        -5.550576         1.164469        -1.358641
 O        -5.183068         2.534241        -1.303374
 H         1.867218        -0.166887         1.141323
 H         1.790115        -1.220571        -0.256370
 H         2.134171         0.568973        -0.484643
 H        -2.847042        -0.692153        -0.911153
 H        -2.872291         0.121199         1.823809
 H        -2.501683         2.250637        -0.250085
 H        -2.718371         1.290113        -1.757822
 H        -4.498910         1.794427         0.716441
 H        -5.040232         0.563928        -2.094823
 H        -6.574208         0.964613        -1.178336
