19
Iteration:  4133charge 0 multiplicity 1
 C         0.917481        -0.041835        -0.922429
 C        -0.384449         0.003790        -0.357783
 C        -1.384355        -0.029769         0.392026
 C        -2.754982         0.190849         0.836655
 O        -2.902810         0.320920         2.242163
 C        -3.465759         1.461670         0.199373
 C        -4.574322         1.256966        -0.828525
 C        -4.459694         0.935180        -2.205967
 O        -4.856417         2.255767        -1.828533
 H         0.825159        -0.114146        -2.008961
 H         1.472377         0.824574        -0.627509
 H         1.413917        -0.953898        -0.514054
 H        -3.176622        -0.821708         0.512355
 H        -2.432234        -0.353706         2.682343
 H        -3.835198         2.166050         1.009739
 H        -2.686293         1.997215        -0.235826
 H        -5.479831         1.024897        -0.157800
 H        -3.493392         0.970848        -2.590942
 H        -5.174242         0.313967        -2.772773
