19
Iteration:  1658charge 0 multiplicity 1
 C         0.156143         0.008690        -1.544463
 C        -0.827002         0.058838        -0.590959
 C        -1.624702         0.084200         0.354870
 C        -2.946388         0.128176         1.033772
 O        -2.894429         0.300456         2.454991
 C        -3.745555         1.314291         0.539527
 C        -3.888985         0.946676        -0.955084
 C        -3.321268         1.906540        -1.972935
 O        -4.815485         1.658775        -1.797524
 H        -0.013215         0.908357        -2.244811
 H         1.140884         0.200366        -1.017372
 H         0.162890        -0.932464        -2.146091
 H        -3.793127        -0.655459         0.913303
 H        -2.431880        -0.442556         2.927292
 H        -4.691080         1.482132         1.004194
 H        -3.091810         2.250723         0.553289
 H        -3.576089        -0.085761        -1.179925
 H        -2.874033         2.824696        -1.534589
 H        -3.089250         1.314706        -2.886654
