19
Iteration:   689
 C         1.410267        -0.115511        -0.052314
 C        -0.051904        -0.216319        -0.381933
 C        -1.234612         0.097868        -0.102991
 C        -2.677219         0.149774         0.185356
 O        -3.023291        -0.281861         1.542546
 C        -3.248546         1.519647        -0.036218
 C        -4.674710         1.523294        -0.462189
 C        -5.017928         1.243965        -1.959965
 O        -5.256313         2.535302        -1.266924
 H         1.952825         0.566141        -0.663890
 H         1.499215         0.230792         0.937193
 H         1.946406        -1.001798        -0.257993
 H        -3.044285        -0.634242        -0.548947
 H        -2.594351        -1.196473         1.541941
 H        -3.144610         1.892409         0.914494
 H        -2.766897         2.183829        -0.712498
 H        -5.303982         1.140883         0.287123
 H        -4.191505         1.245820        -2.672996
 H        -5.944861         0.683069        -2.247535
