19
Iteration:  4071
 C         1.075213        -0.245647        -0.733599
 C        -0.220620        -0.059363        -0.102150
 C        -1.357434         0.071322         0.232308
 C        -2.760003         0.270037         0.525287
 O        -2.906789         0.375788         2.036391
 C        -3.515563         1.546916         0.121400
 C        -4.595737         1.198378        -0.705907
 C        -4.497633         1.046671        -2.210658
 O        -5.071604         2.184126        -1.602695
 H         1.045758        -0.632475        -1.740728
 H         1.786240         0.644415        -0.715775
 H         1.682313        -1.096585        -0.227348
 H        -3.324391        -0.693360         0.275077
 H        -2.175850        -0.143697         2.302763
 H        -3.963765         2.021587         1.032936
 H        -2.845440         2.385032        -0.329182
 H        -5.384927         0.657678        -0.278494
 H        -3.549176         1.274779        -2.777257
 H        -5.150204         0.289731        -2.722794
