19
Iteration:  3287
 C         1.432652        -0.000613        -0.401587
 C        -0.013414         0.087098        -0.091797
 C        -1.219593         0.113857         0.216108
 C        -2.647334        -0.027495         0.434465
 O        -3.376376        -0.249614         1.687655
 C        -3.107475         1.286078        -0.327243
 C        -4.642725         1.340848        -0.655244
 C        -5.058116         1.252445        -1.995675
 O        -5.051184         2.557261        -1.274490
 H         2.143649         0.298497         0.472797
 H         1.607652        -1.089919        -0.594635
 H         1.765770         0.589440        -1.257409
 H        -2.936710        -0.955140        -0.063468
 H        -3.707571         0.680635         1.954548
 H        -2.754089         2.091061         0.211141
 H        -2.669686         1.362826        -1.285250
 H        -5.183017         1.019010         0.194247
 H        -4.267237         1.037529        -2.727352
 H        -6.085982         1.009413        -2.383301
