19
Iteration:  2204charge 0 multiplicity 1
 C         1.417336        -0.354097         0.621603
 C         0.153369        -0.040089         0.023297
 C        -1.032665         0.275390        -0.276630
 C        -2.476987         0.210305        -0.301171
 O        -3.144358        -0.084493         0.971324
 C        -3.088455         1.505115        -0.880272
 C        -4.473740         1.795014        -0.301952
 C        -5.514363         0.915504        -0.939617
 O        -5.472784         2.252457        -1.427467
 H         1.258706        -1.025080         1.542495
 H         2.118254        -0.824223        -0.165214
 H         2.024154         0.428320         1.175381
 H        -2.720232        -0.589718        -0.944146
 H        -2.960893         0.656846         1.582092
 H        -2.563315         2.369019        -0.610556
 H        -3.143996         1.506213        -1.995041
 H        -4.526294         2.091562         0.730752
 H        -5.126061         0.203620        -1.701525
 H        -6.304070         0.406356        -0.424544
