19
Iteration:  4847
 C         0.977018        -0.302070        -0.777206
 C        -0.501379        -0.021743        -0.402010
 C        -1.591891         0.072664         0.133945
 C        -2.854300         0.217299         0.752234
 O        -2.808371         0.104466         2.204704
 C        -3.569404         1.598183         0.259728
 C        -4.661535         1.363783        -0.742022
 C        -4.225425         1.054652        -2.090741
 O        -4.771110         2.327323        -1.809284
 H         1.571011         0.568000        -0.491869
 H         1.284136        -1.252938        -0.211876
 H         0.999472        -0.419357        -1.859827
 H        -3.506944        -0.565962         0.234813
 H        -1.965433        -0.393344         2.510115
 H        -3.624853         2.350104         1.111991
 H        -2.793123         2.076724        -0.424583
 H        -5.657108         1.039991        -0.383431
 H        -3.179061         1.091495        -2.361630
 H        -4.724513         0.405676        -2.783286
