19
Iteration:  1484
 C         0.503709        -0.066018        -1.200292
 C        -0.699266         0.077665        -0.428733
 C        -1.886531        -0.031236         0.016041
 C        -2.935222         0.103656         0.959351
 O        -2.398311         0.510816         2.209580
 C        -4.280714         0.827744         0.486463
 C        -4.242935         0.925232        -1.056219
 C        -3.414783         1.740978        -1.834653
 O        -4.759902         2.154229        -1.672048
 H         0.306927        -0.280898        -2.315324
 H         1.131954         0.883124        -1.023434
 H         1.132620        -0.884694        -0.740382
 H        -3.124710        -0.925039         1.222573
 H        -1.649703         1.162250         2.169934
 H        -5.274085         0.417202         0.694392
 H        -4.236821         1.839619         1.040084
 H        -4.627675         0.044989        -1.575325
 H        -2.637560         2.262021        -1.194385
 H        -3.002778         1.502252        -2.905984
