19
Iteration:  2973charge 0 multiplicity 1
 C         0.460381         0.432258        -1.294610
 C        -0.674737        -0.049502        -0.400362
 C        -1.709891        -0.110012         0.171498
 C        -2.950961        -0.067254         0.976314
 O        -2.724415         0.249652         2.384012
 C        -3.810275         1.122452         0.423099
 C        -4.107838         0.879169        -1.078005
 C        -3.439247         1.757250        -2.002793
 O        -4.900058         2.056990        -1.706824
 H         0.126407         1.489416        -1.566699
 H         1.438278         0.244947        -0.827512
 H         0.340624        -0.181253        -2.254976
 H        -3.484754        -1.046587         0.799903
 H        -3.121518        -0.436942         2.949205
 H        -4.638864         1.170651         1.029908
 H        -3.240077         2.028955         0.629326
 H        -4.632106        -0.066956        -1.294901
 H        -2.705445         2.427348        -1.575041
 H        -3.280648         1.476648        -2.984380
