19
Iteration:  3621charge 0 multiplicity 1
 C         1.469760        -0.205686         0.418734
 C         0.089528        -0.123182        -0.018007
 C        -1.098788         0.062926        -0.029944
 C        -2.631922         0.080274        -0.188980
 O        -3.229198        -0.007885         1.080645
 C        -3.022779         1.538513        -0.653198
 C        -4.483121         1.867195        -0.396476
 C        -5.592451         0.968262        -0.968691
 O        -5.197385         2.186020        -1.708948
 H         1.711365        -1.240443         0.670947
 H         2.190428        -0.029299        -0.499075
 H         1.840117         0.512854         1.219089
 H        -3.029495        -0.811278        -0.658135
 H        -2.635480         0.371118         1.732429
 H        -2.547374         1.952677         0.143075
 H        -2.830969         1.888176        -1.669344
 H        -4.677128         2.758847         0.278695
 H        -5.344058         0.016907        -1.430450
 H        -6.616100         1.058017        -0.464630
