19
Iteration:  3234
 C         1.249761         0.012364        -0.518702
 C        -0.033665        -0.084120         0.097770
 C        -1.242926        -0.103105         0.289414
 C        -2.660666         0.018257         0.418188
 O        -3.091185        -0.062618         1.817889
 C        -3.237916         1.346417        -0.120671
 C        -4.577592         1.274011        -0.822792
 C        -4.922435         1.492808        -2.283567
 O        -5.247696         2.424795        -1.305220
 H         1.915415         0.717938         0.004640
 H         1.775206        -0.865603        -0.672463
 H         1.173386         0.570911        -1.413751
 H        -3.094513        -0.854386        -0.141090
 H        -2.299519        -0.485974         2.305138
 H        -3.267367         2.035891         0.764700
 H        -2.498971         1.836816        -0.771922
 H        -5.305134         0.757521        -0.201980
 H        -4.129521         1.782409        -2.931810
 H        -5.744860         0.821268        -2.576963
