19
Iteration:  2463charge 0 multiplicity 1
 C         1.405679         0.154204        -0.126117
 C        -0.034461         0.097408         0.198106
 C        -1.267634        -0.002662         0.065859
 C        -2.709891        -0.181237        -0.002271
 O        -3.151330        -0.376162         1.356770
 C        -3.050727         1.251320        -0.361710
 C        -4.598069         1.653688        -0.429309
 C        -5.376692         1.179099        -1.580560
 O        -5.004763         2.557502        -1.473421
 H         1.761945        -0.678147        -0.701408
 H         1.353924         1.046579        -0.762558
 H         2.053771         0.276107         0.745757
 H        -3.007985        -0.983431        -0.591284
 H        -2.442277         0.038453         1.944001
 H        -2.553935         1.946228         0.333224
 H        -2.730734         1.495437        -1.384764
 H        -5.108549         1.994830         0.449419
 H        -4.773705         0.660003        -2.406256
 H        -6.470833         1.065354        -1.665404
