19
Iteration:  4365
 C         0.452955        -0.256046        -1.261426
 C        -0.699662         0.017891        -0.477780
 C        -1.694409        -0.000703         0.222383
 C        -2.839916         0.123004         1.045231
 O        -2.688238         0.734004         2.481781
 C        -3.860504         1.197683         0.363288
 C        -4.293003         0.924722        -1.023630
 C        -3.547503         1.490621        -2.113823
 O        -4.841040         2.010868        -1.768071
 H         0.575002         0.251620        -2.146307
 H         1.437996        -0.127004        -0.770238
 H         0.488594        -1.319826        -1.540004
 H        -3.287900        -0.879591         1.291367
 H        -1.952691         1.407104         2.627039
 H        -4.729748         1.245722         1.047599
 H        -3.285808         2.188102         0.432146
 H        -4.854241        -0.104152        -1.102155
 H        -2.682034         2.111034        -1.908939
 H        -3.445597         0.944098        -3.118077
