19
Iteration:    66charge 0 multiplicity 1
 C         1.595814        -0.121277         0.166151
 C         0.169741         0.070585         0.140302
 C        -1.059261         0.067289        -0.001080
 C        -2.562347        -0.002895        -0.212587
 O        -3.098322        -0.810874         0.904454
 C        -3.185047         1.357284        -0.552779
 C        -4.626245         1.748952        -0.278682
 C        -5.654659         1.421727        -1.369129
 O        -5.200867         2.747243        -1.131664
 H         1.805966        -1.067798         0.674506
 H         2.002647        -0.075659        -0.851193
 H         2.128180         0.593310         0.813659
 H        -2.675598        -0.593596        -1.106522
 H        -4.017921        -0.515002         1.044661
 H        -2.650156         2.167863        -0.027553
 H        -2.900729         1.616387        -1.599898
 H        -4.979915         1.872794         0.718000
 H        -5.353417         0.995384        -2.372709
 H        -6.697518         1.110822        -1.104885
