19
Iteration:   575
 C         1.287533        -0.012368        -0.605573
 C        -0.129412        -0.156905        -0.195305
 C        -1.183363         0.025773         0.359464
 C        -2.590267         0.051163         0.393551
 O        -3.302122        -0.179105         1.697560
 C        -3.138663         1.424733        -0.029127
 C        -4.584047         1.203007        -0.771049
 C        -4.901824         1.441677        -2.131097
 O        -5.203680         2.556495        -1.198464
 H         1.351931         0.587136        -1.552838
 H         1.639010         0.680623         0.210001
 H         1.941297        -0.913070        -0.747855
 H        -2.900278        -0.864321        -0.144117
 H        -2.614623        -0.623111         2.285882
 H        -3.129502         1.941129         1.000593
 H        -2.448070         1.985791        -0.765881
 H        -5.130932         0.589511         0.047997
 H        -4.029931         1.607722        -2.761365
 H        -5.714382         0.840236        -2.530420
