19
Iteration:  3377charge 0 multiplicity 1
 C         1.447872         0.032500         0.142606
 C         0.000243        -0.086131        -0.051327
 C        -1.228728        -0.111770         0.063768
 C        -2.598995         0.005157         0.040898
 O        -3.077453        -0.096351         1.397714
 C        -3.128069         1.367091        -0.550362
 C        -4.566461         1.692988        -0.438530
 C        -5.446328         1.104095        -1.495530
 O        -5.132541         2.493542        -1.547837
 H         1.856257        -0.078374         1.199751
 H         1.979000        -0.699087        -0.394595
 H         1.859594         1.044702        -0.025561
 H        -2.857282        -0.858220        -0.606215
 H        -3.115415        -1.089340         1.552667
 H        -2.593935         2.069833        -0.013299
 H        -2.800457         1.527739        -1.567136
 H        -5.038161         1.972110         0.557327
 H        -5.176915         0.407467        -2.316515
 H        -6.502090         0.900587        -1.269057
