19
Iteration:  2460charge 0 multiplicity 1
 C         1.412326         0.162540        -0.122743
 C        -0.005394         0.096564         0.202962
 C        -1.263046        -0.028079         0.060478
 C        -2.720557        -0.155642        -0.014720
 O        -3.154989        -0.370242         1.331480
 C        -3.075686         1.239048        -0.384129
 C        -4.596257         1.660383        -0.424287
 C        -5.372502         1.190788        -1.550231
 O        -4.998532         2.550544        -1.477227
 H         1.766822        -0.781433        -0.648683
 H         1.450042         1.121651        -0.700355
 H         2.034497         0.348164         0.816373
 H        -3.028168        -1.053601        -0.576601
 H        -2.541734         0.020870         1.983258
 H        -2.585198         1.904157         0.267945
 H        -2.714518         1.463617        -1.318397
 H        -5.146123         2.072013         0.438485
 H        -4.858800         0.610957        -2.376716
 H        -6.463290         1.007289        -1.502426
