19
Iteration:  4598
 C         0.735901        -0.625305        -0.886429
 C        -0.587556        -0.194162        -0.353210
 C        -1.667340         0.165025         0.187903
 C        -2.904703         0.307235         0.909199
 O        -2.540762         0.612517         2.313087
 C        -3.725970         1.382900         0.351790
 C        -4.041815         0.978234        -1.197512
 C        -3.987025         2.099278        -2.140217
 O        -5.248257         1.634395        -1.677343
 H         1.256329         0.243672        -1.224544
 H         1.282429        -1.094082        -0.104652
 H         0.448662        -1.326055        -1.621969
 H        -3.391176        -0.673646         0.863409
 H        -1.617941         0.134414         2.404517
 H        -4.716872         1.431199         0.715538
 H        -3.125417         2.332205         0.301110
 H        -3.900316         0.033862        -1.683989
 H        -3.603225         3.130276        -1.752680
 H        -3.862875         2.068855        -3.244277
