19
Iteration:  1121charge 0 multiplicity 1
 C         1.484517        -0.163441        -0.183589
 C        -0.034276        -0.065546        -0.214676
 C        -1.263859        -0.027307         0.020847
 C        -2.732594         0.168261         0.204095
 O        -3.145559        -0.229477         1.546196
 C        -3.224112         1.578251        -0.170619
 C        -4.721261         1.513635        -0.454281
 C        -5.123792         1.060116        -1.767303
 O        -5.046102         2.512693        -1.476421
 H         1.825990        -0.849717         0.560230
 H         1.858747        -0.347596        -1.159751
 H         1.861566         0.791794         0.127384
 H        -3.130009        -0.517616        -0.459961
 H        -2.554139         0.225908         2.211518
 H        -2.962815         2.244599         0.623066
 H        -2.571384         1.800297        -0.971265
 H        -5.305829         1.606985         0.448337
 H        -4.438590         0.777543        -2.588479
 H        -6.132971         0.558959        -1.862928
