19
Iteration:   167charge 0 multiplicity 1
 C         1.224220        -0.067049         0.460328
 C        -0.100334         0.126386        -0.058220
 C        -1.257675         0.020504        -0.378382
 C        -2.609329         0.060653        -0.350475
 O        -3.221104        -0.586966         0.851622
 C        -2.841369         1.538686        -0.622997
 C        -4.281310         1.776853        -0.235119
 C        -5.325964         1.085276        -1.058953
 O        -5.231558         2.502975        -1.113144
 H         1.428385        -1.137243         0.508496
 H         2.023730         0.342867        -0.128294
 H         1.279857         0.390929         1.444524
 H        -2.857223        -0.557612        -1.169994
 H        -3.781105         0.203968         1.149322
 H        -2.286380         2.200537        -0.002366
 H        -2.711992         1.644469        -1.633720
 H        -4.403912         2.053110         0.808624
 H        -4.953323         0.659489        -1.917183
 H        -6.192354         0.631402        -0.705942
