19
Iteration:  2710charge 0 multiplicity 1
 C         0.975976        -0.020728        -0.699743
 C        -0.512330         0.002949        -0.490500
 C        -1.638897         0.025588         0.003832
 C        -2.847041        -0.015430         0.734302
 O        -2.515820         0.051452         2.206897
 C        -3.810856         1.111530         0.381094
 C        -4.329770         1.066422        -1.065288
 C        -4.009482         2.007238        -2.184566
 O        -5.281550         2.075331        -1.497396
 H         1.210179         0.065828        -1.790435
 H         1.470689         0.750493        -0.108539
 H         1.427546        -0.865258        -0.149986
 H        -3.395491        -0.889410         0.469008
 H        -1.557628         0.330385         2.345936
 H        -4.737456         0.987536         1.111519
 H        -3.411579         2.250411         0.528789
 H        -4.628973         0.025187        -1.418858
 H        -3.441399         2.893782        -1.961623
 H        -4.106537         1.871629        -3.251517
