19
Iteration:  3798
 C         1.282827        -0.184133        -0.489236
 C        -0.026837        -0.043114         0.124358
 C        -1.207516        -0.006327         0.333794
 C        -2.684065         0.120253         0.516677
 O        -3.166048         0.243504         1.814844
 C        -3.109474         1.397501        -0.375575
 C        -4.595416         1.210499        -0.785459
 C        -5.157633         1.165090        -2.122723
 O        -5.091108         2.411113        -1.399257
 H         1.430433        -1.100963        -1.022509
 H         1.523529         0.635954        -1.237564
 H         2.171470        -0.153818         0.133463
 H        -3.132154        -0.809221         0.012188
 H        -2.517658         0.050424         2.516481
 H        -3.065911         2.323460         0.111932
 H        -2.332900         1.507325        -1.188979
 H        -5.188765         0.845715         0.046032
 H        -4.564499         1.013267        -3.084626
 H        -6.230684         0.900082        -2.075328
