19
Iteration:  4632charge 0 multiplicity 1
 C         0.776203        -0.580205        -0.677512
 C        -0.539387        -0.192197        -0.343560
 C        -1.687212         0.017706         0.069278
 C        -2.799078         0.284284         0.818969
 O        -2.486843         0.554300         2.236818
 C        -3.704128         1.382085         0.387928
 C        -4.117085         1.126024        -1.127024
 C        -4.059354         2.009808        -2.252501
 O        -5.324546         1.760457        -1.656277
 H         1.494218         0.178249        -1.084283
 H         1.232567        -1.134061         0.072857
 H         0.807441        -1.229585        -1.537853
 H        -3.529707        -0.540878         0.694121
 H        -1.534083         0.225772         2.469615
 H        -4.644960         1.349698         1.045131
 H        -3.450037         2.465246         0.625737
 H        -4.060343         0.100518        -1.465218
 H        -3.723189         3.038123        -2.011182
 H        -4.044780         1.533563        -3.328506
