19
Iteration:  2843charge 0 multiplicity 1
 C         0.103708         0.265869        -1.665812
 C        -0.781189         0.229304        -0.571476
 C        -1.573580         0.247376         0.360355
 C        -2.864499        -0.007973         1.014971
 O        -3.024978         0.206346         2.441561
 C        -3.959849         0.827121         0.438595
 C        -3.977191         0.848262        -1.074615
 C        -3.168243         1.853784        -1.761486
 O        -4.640953         1.956800        -1.662626
 H        -0.261609         0.774416        -2.537169
 H         0.961239         0.896385        -1.559245
 H         0.394270        -0.761402        -1.932693
 H        -2.989379        -1.048984         0.734746
 H        -2.706807        -0.488999         3.097018
 H        -4.973256         0.524915         0.848042
 H        -3.730447         1.924088         0.792465
 H        -4.045566        -0.092233        -1.653257
 H        -2.608888         2.557509        -1.169496
 H        -2.719314         1.530835        -2.679930
