19
Iteration:  3101
 C         1.170939        -0.230735        -0.565800
 C        -0.244368         0.038628        -0.209402
 C        -1.442533         0.297830        -0.002790
 C        -2.777486         0.166838         0.627112
 O        -2.579792        -0.049915         2.045817
 C        -3.792735         1.293240         0.361146
 C        -4.623983         1.105310        -0.909903
 C        -4.293809         1.596135        -2.256370
 O        -5.316068         2.257760        -1.597662
 H         1.788792         0.640652        -0.244611
 H         1.596696        -1.081577        -0.002492
 H         1.157722        -0.368201        -1.644969
 H        -3.308554        -0.760368         0.193886
 H        -1.762049        -0.663711         2.071513
 H        -4.531621         1.176055         1.313599
 H        -3.252990         2.256333         0.406005
 H        -5.354984         0.287662        -0.888621
 H        -3.493861         2.440444        -2.375761
 H        -4.453384         1.137967        -3.253557
