19
Iteration:  3676charge 0 multiplicity 1
 C         1.393200        -0.104536         0.084122
 C        -0.015583        -0.055990         0.137574
 C        -1.232075        -0.063796         0.004671
 C        -2.725596         0.087504         0.028499
 O        -3.060813        -0.058041         1.452660
 C        -3.104329         1.432072        -0.493384
 C        -4.509477         1.885973        -0.574605
 C        -5.383165         0.950084        -1.252639
 O        -5.158132         2.355306        -1.793019
 H         1.837386        -1.078327         0.108172
 H         1.844118         0.393952        -0.847021
 H         1.906568         0.442163         0.923649
 H        -3.230083        -0.769955        -0.416168
 H        -2.542577        -0.861471         1.788287
 H        -2.435418         2.029805        -0.022296
 H        -2.844970         1.597576        -1.568225
 H        -4.720849         2.625757         0.211105
 H        -4.984159         0.069749        -1.822672
 H        -6.403383         0.816443        -0.871683
