19
Iteration:  1929
 C         1.066153        -0.003255        -0.807571
 C        -0.193159        -0.040543        -0.130350
 C        -1.367889         0.016472         0.196947
 C        -2.826331         0.190825         0.613603
 O        -2.833086         0.084241         2.174217
 C        -3.512141         1.461258         0.153947
 C        -4.595881         1.180527        -0.829433
 C        -4.427513         1.188625        -2.298098
 O        -5.080113         2.304889        -1.526254
 H         1.733502         0.739633        -0.345697
 H         1.526972        -0.976565        -1.016411
 H         0.831728         0.525847        -1.730981
 H        -3.516229        -0.722667         0.330160
 H        -2.945635        -0.852012         2.310875
 H        -3.951756         1.817668         1.094418
 H        -2.932977         2.318401        -0.243267
 H        -5.429669         0.503035        -0.498338
 H        -3.441093         1.508758        -2.737425
 H        -4.968053         0.582701        -3.032751
