19
Iteration:  2659charge 0 multiplicity 1
 C         1.107006        -0.205286        -0.624182
 C        -0.199583         0.015929        -0.162833
 C        -1.353053         0.222510         0.014150
 C        -2.727261         0.050326         0.529964
 O        -2.687315         0.075465         1.930165
 C        -3.708920         1.191158         0.285852
 C        -4.534025         1.061372        -0.942815
 C        -4.297988         1.881261        -2.171247
 O        -5.395053         2.164929        -1.362552
 H         1.120061        -0.218959        -1.700527
 H         1.746141         0.660333        -0.364628
 H         1.499778        -1.015872         0.036572
 H        -3.142668        -0.861857        -0.064340
 H        -2.850132        -0.811053         2.283781
 H        -4.418867         1.262062         1.079177
 H        -3.250520         2.069107         0.163444
 H        -4.973995         0.113311        -1.133688
 H        -3.483067         2.599571        -2.071398
 H        -4.357921         1.347492        -3.177988
