19
Iteration:  4316
 C         0.542030        -0.192440        -1.175387
 C        -0.644484        -0.100380        -0.313810
 C        -1.708272         0.214864         0.193154
 C        -2.886490         0.203598         1.002446
 O        -2.594909         0.615265         2.346519
 C        -3.957639         1.117557         0.533557
 C        -4.449800         1.055209        -0.970077
 C        -3.713523         1.181046        -2.211715
 O        -4.639622         2.175908        -1.817428
 H         0.450501         0.452899        -2.168153
 H         1.477672         0.233150        -0.791879
 H         0.878737        -1.167306        -1.513977
 H        -3.262905        -0.832965         0.877713
 H        -1.686751         0.937382         2.295850
 H        -4.752331         0.779266         1.236561
 H        -3.578158         2.133447         0.666794
 H        -5.320678         0.426541        -1.158917
 H        -2.688811         1.501842        -2.158323
 H        -3.926911         0.729017        -3.164293
