19
Iteration:   452charge 0 multiplicity 1
 C         1.482710        -0.060474        -0.275472
 C        -0.030288         0.000064        -0.154666
 C        -1.229401         0.049253         0.088319
 C        -2.700654        -0.056163         0.253963
 O        -2.876900        -0.347294         1.645780
 C        -3.393327         1.339683        -0.158249
 C        -4.827252         1.499553        -0.507885
 C        -5.186306         1.309030        -1.934713
 O        -4.992981         2.611681        -1.406862
 H         1.827456        -0.058934        -1.332264
 H         1.883544         0.814562         0.269536
 H         1.882297        -1.026218         0.062644
 H        -3.052983        -0.809889        -0.448964
 H        -3.791623        -0.058733         1.916370
 H        -3.294079         2.087745         0.715328
 H        -2.769089         1.860297        -0.896126
 H        -5.598473         1.578357         0.231555
 H        -4.392865         1.107825        -2.624988
 H        -6.144246         0.892691        -2.182016
