19
Iteration:     5charge 0 multiplicity 1
 C         1.511810        -0.066364         0.051827
 C         0.046081         0.012857        -0.034462
 C        -1.175428        -0.016442        -0.067136
 C        -2.602546        -0.005770        -0.129901
 O        -3.183715        -0.606968         1.017476
 C        -3.124724         1.466516        -0.336216
 C        -4.665727         1.429081        -0.405742
 C        -5.364395         1.508281        -1.672532
 O        -5.177473         2.707966        -0.907667
 H         1.821885        -0.872755         0.735235
 H         1.966521        -0.336657        -0.904312
 H         1.903543         0.919225         0.330669
 H        -3.036797        -0.631039        -0.959764
 H        -2.627358        -0.484340         1.834331
 H        -2.717052         1.901638         0.589446
 H        -2.663112         1.888949        -1.201640
 H        -5.216789         1.062060         0.445606
 H        -4.819788         1.519020        -2.581598
 H        -6.334740         1.069337        -1.654060
