19
Iteration:  2967
 C         0.412198         0.445023        -1.335035
 C        -0.676877        -0.017189        -0.465102
 C        -1.749699        -0.146215         0.177525
 C        -2.935438        -0.042905         1.000868
 O        -2.751762         0.253427         2.408166
 C        -3.808513         1.083328         0.363264
 C        -4.105109         0.893971        -1.046864
 C        -3.416383         1.783177        -1.966023
 O        -4.834315         2.003525        -1.683471
 H         0.069921         1.425202        -1.528635
 H         1.440748         0.320061        -0.973192
 H         0.557737        -0.079068        -2.255890
 H        -3.615032        -0.896139         0.967625
 H        -3.380030        -0.349659         2.926015
 H        -4.717625         1.235624         1.117592
 H        -3.217451         2.029135         0.517484
 H        -4.623420         0.001615        -1.375761
 H        -2.677198         2.442292        -1.455040
 H        -3.082192         1.350890        -2.996969
