19
Iteration:  1145
 C         1.222849        -0.144781        -0.196154
 C        -0.173941         0.012110        -0.072419
 C        -1.340848         0.054819        -0.194570
 C        -2.728353         0.053211         0.199936
 O        -2.904760        -0.226878         1.658821
 C        -3.224115         1.542208        -0.074735
 C        -4.700503         1.542994        -0.504496
 C        -5.005974         1.102524        -1.863137
 O        -5.027803         2.473164        -1.485130
 H         1.387940        -1.034557         0.472581
 H         1.507806        -0.281263        -1.258157
 H         1.816504         0.654852         0.288500
 H        -3.153907        -0.736350        -0.355428
 H        -2.256096         0.323299         2.158554
 H        -2.867011         2.048569         0.793704
 H        -2.467327         1.807441        -0.815913
 H        -5.389760         1.516004         0.325964
 H        -4.225005         0.703081        -2.600096
 H        -6.017408         0.695196        -2.062204
