19
Iteration:   137charge 0 multiplicity 1
 C         1.456205        -0.003802         0.424404
 C        -0.012020         0.044716         0.009626
 C        -1.194379        -0.205250        -0.266841
 C        -2.585405         0.021848        -0.402598
 O        -3.280599        -0.362037         0.795242
 C        -3.027678         1.536693        -0.586014
 C        -4.389123         1.694217        -0.189900
 C        -5.443346         1.197539        -1.088559
 O        -5.155235         2.531328        -1.128747
 H         1.742081        -1.056621         0.648652
 H         2.176902         0.356365        -0.343740
 H         1.613280         0.587216         1.336719
 H        -2.922559        -0.666167        -1.240169
 H        -3.709344        -1.224766         0.649756
 H        -2.431180         2.147169         0.170038
 H        -2.880509         1.880589        -1.670592
 H        -4.688420         1.949329         0.922434
 H        -5.172095         0.655984        -2.013377
 H        -6.402090         0.825146        -0.678804
