19
Iteration:  2163charge 0 multiplicity 1
 C         1.496812        -0.242133         0.345736
 C         0.110517        -0.108479         0.090244
 C        -1.130634         0.004731        -0.051458
 C        -2.520648         0.250265        -0.214268
 O        -3.033368        -0.067841         1.147379
 C        -3.016698         1.628605        -0.614937
 C        -4.569828         1.667127        -0.467623
 C        -5.565133         0.932135        -1.194629
 O        -5.447638         2.295929        -1.507321
 H         1.705655        -0.736858         1.318127
 H         2.000119        -0.831817        -0.407804
 H         1.848749         0.782329         0.440382
 H        -3.004298        -0.520848        -0.890872
 H        -2.522395         0.604736         1.706453
 H        -2.521275         2.395114         0.050492
 H        -2.687379         1.753627        -1.663288
 H        -4.977583         1.900913         0.501199
 H        -5.266522         0.210800        -2.019445
 H        -6.533605         0.794558        -0.750636
