19
Iteration:  1296
 C         1.059424        -0.204838        -0.927573
 C        -0.262920        -0.016751        -0.266227
 C        -1.290614         0.010303         0.378226
 C        -2.766066         0.159832         0.692382
 O        -3.045384        -0.018705         2.127057
 C        -3.432757         1.488923         0.175980
 C        -4.396326         1.258087        -0.868983
 C        -4.408552         1.504233        -2.325138
 O        -5.202087         2.269162        -1.416613
 H         1.205270        -1.137195        -1.430350
 H         1.109861         0.531864        -1.688580
 H         1.851530         0.018357        -0.255674
 H        -3.424180        -0.602653         0.162799
 H        -2.559396        -0.886083         2.294043
 H        -3.956674         1.921564         1.027888
 H        -2.736520         2.239669        -0.251129
 H        -5.030852         0.389422        -0.685839
 H        -3.471677         1.950711        -2.761208
 H        -5.051840         0.767032        -2.792001
