19
Iteration:  3769charge 0 multiplicity 1
 C         1.283862        -0.154108        -0.401992
 C        -0.045996         0.073395         0.133469
 C        -1.225033        -0.012595         0.335430
 C        -2.705734        -0.001220         0.377957
 O        -3.139756         0.187112         1.777135
 C        -3.057374         1.320151        -0.509929
 C        -4.652133         1.457449        -0.616916
 C        -5.100073         1.088642        -1.928656
 O        -5.127221         2.465584        -1.511158
 H         1.450440        -1.219721        -0.829283
 H         1.622685         0.532448        -1.257190
 H         2.154644        -0.019893         0.280593
 H        -3.135600        -0.899886        -0.049523
 H        -2.742491        -0.529149         2.227885
 H        -2.582031         2.285699        -0.176746
 H        -2.682099         0.984160        -1.453447
 H        -5.149621         1.313601         0.378388
 H        -4.483876         0.735043        -2.716497
 H        -6.151250         0.726479        -2.052865
