19
Iteration:  2356charge 0 multiplicity 1
 C         1.391955        -0.003502         0.463792
 C        -0.007414         0.087705         0.311557
 C        -1.128184        -0.164991        -0.230670
 C        -2.541868         0.110118        -0.327449
 O        -3.200087        -0.261906         0.952482
 C        -2.999132         1.417113        -0.942815
 C        -4.418750         1.826735        -0.445615
 C        -5.565887         1.034935        -0.801269
 O        -5.252758         2.346997        -1.407571
 H         1.759575        -1.024886         0.583171
 H         2.044137         0.457018        -0.329500
 H         1.580268         0.681469         1.293441
 H        -2.814855        -0.766265        -1.064381
 H        -2.401361        -0.102480         1.559585
 H        -2.398019         2.318162        -0.561388
 H        -2.983844         1.546217        -2.095240
 H        -4.561498         2.240053         0.540309
 H        -5.306164         0.232752        -1.497117
 H        -6.445929         0.944790        -0.236297
