19
Iteration:  2864charge 0 multiplicity 1
 C        -0.037984         0.314567        -1.735862
 C        -0.815414         0.259311        -0.496847
 C        -1.553609         0.250205         0.509352
 C        -2.911070        -0.060888         1.002038
 O        -2.993186         0.154032         2.379004
 C        -4.005386         0.886838         0.464157
 C        -3.982753         0.826130        -1.032589
 C        -3.110752         1.790684        -1.724110
 O        -4.504126         1.950457        -1.774323
 H        -0.541156         0.914607        -2.525497
 H         0.819194         0.952276        -1.690847
 H         0.158445        -0.644393        -2.243588
 H        -3.122209        -1.161320         0.836174
 H        -2.159747         0.306835         2.793964
 H        -4.962594         0.509724         0.808661
 H        -3.704073         1.803208         1.042170
 H        -4.160456        -0.186062        -1.465781
 H        -2.659755         2.506904        -1.081626
 H        -2.686917         1.708853        -2.693810
