19
Iteration:  1241charge 0 multiplicity 1
 C         1.228210        -0.156207        -0.565531
 C        -0.178716        -0.079904        -0.190910
 C        -1.399866        -0.000063         0.044346
 C        -2.761046         0.074962         0.496791
 O        -2.829922         0.041830         1.907512
 C        -3.473759         1.463847         0.100860
 C        -4.720641         1.265314        -0.733694
 C        -4.615372         1.266145        -2.182422
 O        -5.074532         2.493133        -1.369872
 H         1.398097        -1.206933        -0.510714
 H         1.431874         0.219382        -1.519585
 H         1.886188         0.292138         0.133107
 H        -3.545974        -0.563223        -0.019461
 H        -2.433160        -0.820693         2.059869
 H        -3.773212         1.893919         1.071206
 H        -2.947209         2.273730        -0.437892
 H        -5.580153         0.766204        -0.288575
 H        -3.541447         1.261656        -2.537086
 H        -5.359294         0.918107        -2.907925
