19
Iteration:  2989charge 0 multiplicity 1
 C         0.482518         0.321273        -1.196906
 C        -0.606014         0.001253        -0.315707
 C        -1.643388        -0.057616         0.256124
 C        -2.941550        -0.054596         0.929303
 O        -2.654729         0.194574         2.308697
 C        -3.863377         1.070986         0.426482
 C        -4.232741         1.017165        -1.018927
 C        -3.612926         1.781086        -2.161855
 O        -4.878021         2.060695        -1.697627
 H         0.522722         1.367673        -1.390004
 H         1.455012         0.005030        -0.788805
 H         0.585306        -0.201855        -2.108381
 H        -3.537966        -0.976367         0.884100
 H        -2.418910        -0.640557         2.685057
 H        -4.857569         1.100211         1.074751
 H        -3.364028         2.043725         0.652751
 H        -4.472738         0.022102        -1.397614
 H        -2.847940         2.540108        -1.912099
 H        -3.514554         1.288993        -3.215548
