19
Iteration:   947charge 0 multiplicity 1
 C         1.387241         0.022285         0.464898
 C        -0.046592        -0.161678         0.185865
 C        -1.109083        -0.181663        -0.447488
 C        -2.617816        -0.039872        -0.275091
 O        -2.872472        -0.285473         1.155633
 C        -3.110296         1.349018        -0.727856
 C        -4.589829         1.743207        -0.424244
 C        -5.644292         1.217190        -1.174568
 O        -5.204748         2.620573        -1.299430
 H         1.534191         0.651061         1.419778
 H         1.887940        -0.917244         0.820592
 H         1.841826         0.590876        -0.408697
 H        -3.081231        -0.944992        -0.863951
 H        -2.130620         0.085276         1.626502
 H        -2.408768         2.042338        -0.170100
 H        -2.916906         1.623571        -1.848743
 H        -4.791920         1.867591         0.566934
 H        -5.247002         0.715339        -2.052370
 H        -6.679722         1.129849        -0.762160
