19
Iteration:  1414
 C         0.711991        -0.059955        -0.971382
 C        -0.639361        -0.126968        -0.516202
 C        -1.678092         0.012761         0.023988
 C        -2.944317         0.139271         0.953525
 O        -2.511825         0.207894         2.289248
 C        -3.925845         1.147141         0.404923
 C        -4.207285         0.993917        -1.037425
 C        -3.746484         1.773121        -2.176102
 O        -5.041097         2.169308        -1.554972
 H         0.893395        -0.619122        -1.992056
 H         1.026919         1.052208        -1.009813
 H         1.379602        -0.509912        -0.151469
 H        -3.456264        -0.884958         0.999485
 H        -2.012831         1.041907         2.382448
 H        -4.862728         1.091313         1.007261
 H        -3.474468         2.137644         0.506164
 H        -4.736794         0.031685        -1.201040
 H        -2.839398         2.348232        -2.083977
 H        -3.905947         1.310939        -3.102130
