19
Iteration:  4817charge 0 multiplicity 1
 C         0.966476        -0.306673        -0.716669
 C        -0.469580        -0.196279        -0.340953
 C        -1.545285        -0.003593         0.148998
 C        -2.868992         0.232111         0.700053
 O        -2.803621         0.154015         2.144211
 C        -3.501182         1.645715         0.308288
 C        -4.519016         1.393073        -0.759169
 C        -4.217462         1.142036        -2.207792
 O        -4.998149         2.288016        -1.756871
 H         1.516627         0.669381        -0.513895
 H         1.499313        -1.118805        -0.190505
 H         1.144272        -0.469217        -1.782647
 H        -3.448725        -0.521804         0.129261
 H        -1.910613        -0.020651         2.494222
 H        -3.819359         2.047660         1.206298
 H        -2.733952         2.357758        -0.096887
 H        -5.402531         0.806743        -0.452730
 H        -3.300992         1.503680        -2.573871
 H        -4.851697         0.393174        -2.736622
