19
Iteration:  4413
 C         0.315718        -0.259259        -1.287907
 C        -0.753664        -0.241603        -0.366872
 C        -1.743737         0.068799         0.263877
 C        -2.908094         0.365798         1.190449
 O        -2.518826         0.506251         2.512872
 C        -3.846658         1.371084         0.377987
 C        -4.012171         0.885010        -1.090249
 C        -3.515368         1.806383        -2.176576
 O        -4.989935         1.714404        -1.859708
 H         0.286687         0.635340        -2.050099
 H         1.335401        -0.150649        -0.863957
 H         0.475008        -1.152867        -1.913492
 H        -3.546229        -0.517549         1.226390
 H        -2.156913         1.393192         2.776040
 H        -4.861665         1.412320         0.827812
 H        -3.576859         2.478144         0.282565
 H        -4.010480        -0.163395        -1.260831
 H        -3.028622         2.815892        -2.021679
 H        -3.193741         1.341177        -3.093728
