19
Iteration:  1778charge 0 multiplicity 1
 C         0.815401        -0.083514        -0.925400
 C        -0.535435        -0.145658        -0.482987
 C        -1.632054         0.074779         0.014917
 C        -2.877318         0.126133         0.892002
 O        -2.604508         0.371617         2.198488
 C        -3.946176         1.092811         0.411523
 C        -4.436592         0.956293        -1.005068
 C        -3.812976         1.617767        -2.103438
 O        -4.936240         2.211438        -1.556860
 H         1.114619         0.971089        -0.884751
 H         1.343764        -0.704108        -0.205491
 H         0.794789        -0.529218        -1.909496
 H        -3.382769        -0.827008         0.978694
 H        -1.923231         1.018789         2.114444
 H        -4.848691         0.966719         1.094985
 H        -3.534563         2.206149         0.317212
 H        -5.158001         0.166083        -1.195304
 H        -2.861904         2.260049        -1.814530
 H        -3.776328         1.071740        -3.102836
