19
Iteration:   882charge 0 multiplicity 1
 C         1.391869         0.022231         0.508776
 C         0.087880        -0.031706        -0.160238
 C        -1.133812        -0.190389        -0.314070
 C        -2.556581        -0.075782        -0.239590
 O        -3.142702        -0.109808         1.102270
 C        -3.006951         1.254895        -0.749170
 C        -4.427909         1.618043        -0.316795
 C        -5.630703         1.238755        -1.268702
 O        -5.254097         2.618858        -1.163501
 H         1.393070         1.004607         1.099925
 H         1.372785        -0.839972         1.222758
 H         2.321182         0.073073        -0.136285
 H        -3.183945        -0.957335        -0.677015
 H        -2.401197        -0.350548         1.743113
 H        -2.246230         1.972262        -0.293736
 H        -2.858362         1.330676        -1.904707
 H        -4.720674         1.586539         0.667802
 H        -5.465608         0.757894        -2.212270
 H        -6.545828         0.845135        -0.808617
