19
Iteration:  4409charge 0 multiplicity 1
 C         0.346594        -0.243634        -1.308673
 C        -0.738412        -0.232718        -0.392331
 C        -1.727733         0.048350         0.284901
 C        -2.911419         0.331645         1.181724
 O        -2.521679         0.514147         2.525032
 C        -3.880721         1.388932         0.380704
 C        -4.046696         0.927173        -1.093788
 C        -3.514192         1.788841        -2.160281
 O        -4.967913         1.720691        -1.846193
 H         0.276328         0.530863        -1.983368
 H         1.335836        -0.136046        -0.794183
 H         0.372361        -1.208900        -1.840909
 H        -3.517900        -0.614681         1.180561
 H        -2.221460         1.473430         2.549355
 H        -4.903478         1.424558         0.744662
 H        -3.550554         2.448726         0.195789
 H        -4.019150        -0.211311        -1.144842
 H        -3.044557         2.735610        -2.029110
 H        -3.206552         1.276730        -3.156569
