19
Iteration:   277
 C         1.534802        -0.365695         0.258859
 C         0.167982         0.217907         0.077630
 C        -1.031819         0.132444         0.034438
 C        -2.478474         0.085244        -0.228867
 O        -3.123200        -0.639240         0.918295
 C        -3.195485         1.566764        -0.666343
 C        -4.575464         1.824135        -0.340146
 C        -5.571812         1.166387        -1.213234
 O        -5.343766         2.571087        -1.245570
 H         1.655886        -1.291502        -0.314152
 H         2.303185         0.315529        -0.097229
 H         1.739496        -0.499020         1.311801
 H        -2.675244        -0.642937        -1.122991
 H        -3.742061        -0.070314         1.401468
 H        -2.545298         2.245896        -0.069839
 H        -2.978539         1.719530        -1.667463
 H        -4.847352         1.973833         0.693772
 H        -5.094551         0.487990        -1.829338
 H        -6.537210         0.918203        -0.888770
