19
Iteration:  2874charge 0 multiplicity 1
 C        -0.108767         0.370699        -1.725967
 C        -0.786081         0.280354        -0.505524
 C        -1.574120         0.171305         0.445771
 C        -2.897494        -0.022032         1.045052
 O        -2.946368         0.091973         2.504602
 C        -4.047909         0.853371         0.487888
 C        -3.971479         0.868320        -1.085620
 C        -3.050686         1.804534        -1.771393
 O        -4.529069         1.952041        -1.809178
 H        -0.859113         0.967228        -2.340122
 H         0.912679         0.774271        -1.633053
 H         0.122880        -0.676436        -2.060926
 H        -3.048036        -1.085894         0.623790
 H        -2.207582         0.655628         2.684387
 H        -4.998429         0.635694         0.872097
 H        -3.943851         1.944444         0.680061
 H        -4.126838        -0.122887        -1.609652
 H        -2.483470         2.365873        -1.091261
 H        -2.501545         1.501226        -2.642803
