19
Iteration:  4769
 C         0.986597        -0.398598        -0.688967
 C        -0.349310        -0.192974        -0.197402
 C        -1.467745         0.026296         0.196759
 C        -2.874752         0.187174         0.763357
 O        -2.694037         0.302855         2.167413
 C        -3.536549         1.454312         0.145891
 C        -4.593105         1.117521        -0.942888
 C        -4.286922         1.477068        -2.352736
 O        -5.117133         2.334464        -1.587867
 H         1.536741         0.519596        -0.730483
 H         1.443673        -1.244567        -0.056252
 H         0.835252        -0.738522        -1.744625
 H        -3.497218        -0.660524         0.364040
 H        -1.837346         0.256397         2.554400
 H        -3.933016         2.159014         0.977935
 H        -2.616997         1.944995        -0.157369
 H        -5.365671         0.336168        -0.724929
 H        -3.268338         1.831381        -2.554888
 H        -4.851785         0.951470        -3.008769
