19
Iteration:  1526
 C         0.336126        -0.057518        -1.443568
 C        -0.790327         0.007556        -0.615274
 C        -1.703879         0.048448         0.280371
 C        -2.878991         0.007263         1.105560
 O        -2.712684         0.628701         2.383385
 C        -4.092349         0.768759         0.409801
 C        -4.122133         0.798803        -1.134171
 C        -3.300635         1.803015        -1.868186
 O        -4.730673         2.172224        -1.595895
 H         0.073542         0.047630        -2.579687
 H         1.054944         0.782777        -1.106871
 H         1.035588        -0.932745        -1.292694
 H        -3.237207        -1.058050         1.134928
 H        -2.110371         1.424322         2.250268
 H        -4.892067         0.196745         0.842160
 H        -4.173011         1.856769         0.645530
 H        -4.378545        -0.106052        -1.683619
 H        -2.530471         2.414459        -1.361930
 H        -3.106821         1.641510        -2.971933
