19
Iteration:  2628
 C         1.365029        -0.232446        -0.588858
 C        -0.082411        -0.038611        -0.282158
 C        -1.220887         0.208208         0.125041
 C        -2.745797         0.200968         0.579768
 O        -2.860652        -0.139811         2.011501
 C        -3.726019         1.416256         0.239227
 C        -4.621068         1.095066        -0.958230
 C        -4.498063         1.789692        -2.301320
 O        -5.387324         2.188805        -1.316409
 H         1.547837        -0.551981        -1.641995
 H         1.787157         0.805810        -0.464320
 H         1.736414        -1.047726         0.043126
 H        -3.213870        -0.539412        -0.096607
 H        -2.418036        -1.007069         2.121625
 H        -4.248217         1.678792         1.115809
 H        -3.182318         2.250803        -0.080661
 H        -5.172862         0.171191        -0.981028
 H        -3.604813         2.427166        -2.342393
 H        -4.913531         1.350985        -3.271357
