19
Iteration:  2845charge 0 multiplicity 1
 C         0.084348         0.276411        -1.682652
 C        -0.777538         0.226230        -0.575693
 C        -1.580622         0.256627         0.383286
 C        -2.867149        -0.023775         1.007088
 O        -3.033272         0.211537         2.432934
 C        -3.942003         0.824893         0.438481
 C        -3.975905         0.845819        -1.061897
 C        -3.163880         1.852935        -1.747124
 O        -4.632729         1.953480        -1.670726
 H        -0.334384         0.773333        -2.517923
 H         1.010055         0.853154        -1.520623
 H         0.394967        -0.742625        -1.883194
 H        -3.008612        -1.033732         0.700311
 H        -2.629199        -0.462329         3.019227
 H        -4.972851         0.504702         0.884675
 H        -3.777998         1.930259         0.711513
 H        -4.085362        -0.067647        -1.614458
 H        -2.554646         2.614184        -1.170906
 H        -2.697926         1.472373        -2.652345
