19
Iteration:   318charge 0 multiplicity 1
 C         1.449888        -0.242919         0.056465
 C         0.049948         0.028929         0.163127
 C        -1.140750         0.145562         0.064575
 C        -2.576716         0.135927        -0.153799
 O        -3.252426        -0.403660         0.965136
 C        -3.023679         1.592886        -0.559412
 C        -4.543601         1.650550        -0.340030
 C        -5.436177         1.074315        -1.352003
 O        -5.248611         2.512510        -1.221156
 H         1.634084        -0.952182        -0.770947
 H         1.991970         0.681619        -0.145659
 H         1.870630        -0.710072         0.969328
 H        -2.693054        -0.559562        -0.987155
 H        -2.478331        -0.652730         1.550305
 H        -2.737578         2.241845         0.281248
 H        -2.571119         2.070886        -1.422771
 H        -4.797829         1.647569         0.649873
 H        -5.139819         0.732842        -2.341909
 H        -6.415965         0.730294        -0.978760
