19
Iteration:  3440charge 0 multiplicity 1
 C         1.494141        -0.163476         0.497528
 C        -0.026099        -0.056135         0.140387
 C        -1.196807        -0.014872        -0.162424
 C        -2.621227         0.101928        -0.265109
 O        -2.893020        -0.098099         1.136481
 C        -3.081784         1.508070        -0.769992
 C        -4.508653         1.838170        -0.418095
 C        -5.554454         0.946337        -1.148150
 O        -5.279533         2.303390        -1.479467
 H         1.473917        -0.713827         1.523640
 H         2.091010        -0.661704        -0.320209
 H         1.863804         0.871976         0.557532
 H        -3.236718        -0.667417        -0.772496
 H        -3.806951         0.187792         1.293961
 H        -2.468742         2.278500        -0.240462
 H        -2.813619         1.592081        -1.832305
 H        -4.675999         2.357598         0.525380
 H        -5.153809         0.201676        -1.853883
 H        -6.561443         0.936824        -0.640266
