19
Iteration:   157charge 0 multiplicity 1
 C         1.255791        -0.047105         0.443078
 C        -0.049216         0.157737        -0.045685
 C        -1.200630        -0.063306        -0.314344
 C        -2.643854         0.059401        -0.414115
 O        -3.230667        -0.497904         0.853237
 C        -2.875964         1.531616        -0.625623
 C        -4.356706         1.753413        -0.222896
 C        -5.334365         1.016905        -1.060739
 O        -5.157723         2.560191        -1.083556
 H         1.416253        -1.125252         0.565975
 H         1.998243         0.346307        -0.239046
 H         1.407202         0.401219         1.420294
 H        -3.152198        -0.463295        -1.190561
 H        -4.238045        -0.302187         0.868412
 H        -2.019499         1.946719        -0.125763
 H        -2.739122         1.717215        -1.668356
 H        -4.712882         1.921018         0.843854
 H        -4.985676         0.524558        -1.893377
 H        -6.291720         0.724337        -0.764902
