19
Iteration:  2698
 C         0.980442        -0.077854        -0.625593
 C        -0.376884         0.092788        -0.405356
 C        -1.590565        -0.021167        -0.060766
 C        -2.788795         0.077644         0.743870
 O        -2.526227         0.019687         2.197269
 C        -3.868652         1.167997         0.320042
 C        -4.372084         1.013548        -1.111595
 C        -4.122227         2.034112        -2.180828
 O        -5.300137         2.111749        -1.468850
 H         1.219706        -0.137229        -1.740284
 H         1.522925         0.817217        -0.307072
 H         1.328457        -1.073860        -0.339148
 H        -3.257637        -0.881395         0.648379
 H        -1.606505        -0.295929         2.213781
 H        -4.687693         1.040543         1.128222
 H        -3.318502         2.228766         0.512118
 H        -4.769629        -0.004942        -1.429421
 H        -3.328595         2.780414        -2.082019
 H        -4.213721         1.568366        -3.138224
