19
Iteration:   648charge 0 multiplicity 1
 C         1.328170        -0.198466        -0.328336
 C        -0.040781         0.197519        -0.111356
 C        -1.230945         0.086705         0.043894
 C        -2.723347         0.013108         0.156608
 O        -3.002730        -0.221101         1.660189
 C        -3.326091         1.334720        -0.057263
 C        -4.761450         1.371137        -0.619869
 C        -4.959230         1.336071        -2.022917
 O        -5.087613         2.561624        -1.227301
 H         1.778138         0.326273        -1.192864
 H         1.998032         0.014682         0.545495
 H         1.405074        -1.304179        -0.482694
 H        -3.271002        -0.737838        -0.388210
 H        -2.537966        -0.991739         1.984070
 H        -3.322382         1.953679         0.876087
 H        -2.595336         1.793317        -0.722529
 H        -5.419592         0.887041         0.072771
 H        -4.052337         1.370173        -2.621488
 H        -5.969007         1.154626        -2.453094
