19
Iteration:  4762
 C         1.028106        -0.438705        -0.718184
 C        -0.368229        -0.152186        -0.211840
 C        -1.508778         0.025202         0.287709
 C        -2.873034         0.141572         0.768237
 O        -2.681725         0.341211         2.181466
 C        -3.552046         1.437897         0.152512
 C        -4.592426         1.095653        -0.956917
 C        -4.307075         1.535063        -2.331136
 O        -5.138009         2.338690        -1.600672
 H         1.786403         0.389924        -0.683895
 H         1.643070        -1.167654        -0.154686
 H         1.121313        -0.888632        -1.707107
 H        -3.396609        -0.829071         0.538209
 H        -1.783445         0.227285         2.357020
 H        -3.933007         2.041972         0.891785
 H        -2.677279         1.866108        -0.421213
 H        -5.411996         0.370093        -0.906121
 H        -3.316486         1.901721        -2.539970
 H        -4.834709         1.081136        -3.265612
