19
Iteration:  4811
 C         0.945277        -0.298631        -0.695720
 C        -0.391711        -0.225647        -0.321081
 C        -1.535223        -0.022386         0.109379
 C        -2.889477         0.256977         0.725497
 O        -2.837670         0.178392         2.115275
 C        -3.506062         1.657456         0.337740
 C        -4.463782         1.371708        -0.742740
 C        -4.254763         1.171833        -2.265032
 O        -5.010318         2.277821        -1.716153
 H         1.541582         0.569161        -0.541546
 H         1.621391        -1.074276        -0.297982
 H         1.073093        -0.558175        -1.774854
 H        -3.498009        -0.593650         0.314890
 H        -1.796429         0.021833         2.234698
 H        -4.041816         2.094130         1.326495
 H        -2.822345         2.317208        -0.159066
 H        -5.316014         0.721190        -0.528459
 H        -3.198885         1.486863        -2.694917
 H        -4.843185         0.379916        -2.765809
