19
Iteration:  3539
 C         1.492518        -0.448334         0.527699
 C         0.136211         0.056575         0.292945
 C        -1.034978         0.280946        -0.136598
 C        -2.565270         0.249409        -0.335770
 O        -3.285234        -0.092636         0.935801
 C        -3.076823         1.534439        -0.932906
 C        -4.428478         1.910149        -0.484251
 C        -5.511413         0.935380        -0.767061
 O        -5.372569         2.158156        -1.534485
 H         1.351873        -1.365196         1.135538
 H         1.921385        -0.609410        -0.412306
 H         1.940817         0.282702         1.151890
 H        -2.747885        -0.595519        -1.028510
 H        -2.717519        -0.578446         1.507576
 H        -2.291637         2.230312        -0.642135
 H        -3.005289         1.649949        -2.000770
 H        -4.564106         2.538617         0.366407
 H        -5.181637        -0.068194        -1.125746
 H        -6.329284         0.844896        -0.106865
