19
Iteration:  3933charge 0 multiplicity 1
 C         1.376579        -0.406278        -0.241061
 C        -0.163058        -0.280178        -0.212829
 C        -1.239705         0.177812         0.061926
 C        -2.610822         0.233784         0.589301
 O        -2.722000         0.345503         2.002845
 C        -3.424909         1.485927        -0.129278
 C        -4.792687         1.121414        -0.834270
 C        -4.826822         1.362781        -2.313879
 O        -5.459772         2.261876        -1.456392
 H         1.679779        -1.192317        -1.028251
 H         1.723424         0.646019        -0.478958
 H         1.653296        -0.662675         0.798831
 H        -2.953470        -0.745822         0.113145
 H        -1.795688         0.577969         2.382931
 H        -3.667117         2.001890         0.749640
 H        -2.796431         1.981425        -0.812094
 H        -5.491573         0.326143        -0.411917
 H        -3.925788         1.871295        -2.755594
 H        -5.345822         0.735188        -3.064474
