19
Iteration:  4797charge 0 multiplicity 1
 C         1.038688        -0.339779        -0.740769
 C        -0.373631        -0.259724        -0.168106
 C        -1.576922        -0.029017         0.037555
 C        -2.899691         0.297834         0.672679
 O        -2.810643         0.221771         2.136290
 C        -3.507249         1.649237         0.297451
 C        -4.451572         1.230126        -0.843758
 C        -4.280018         1.256046        -2.280980
 O        -5.027196         2.284843        -1.628112
 H         1.483045         0.689892        -0.637102
 H         1.531183        -1.092392        -0.210450
 H         0.952320        -0.518290        -1.814727
 H        -3.653133        -0.414202         0.295388
 H        -1.979213         0.148907         2.514300
 H        -4.116072         1.977230         1.110291
 H        -2.735079         2.431273         0.264952
 H        -5.153428         0.504066        -0.415059
 H        -3.321279         1.583492        -2.793833
 H        -4.990410         0.524303        -2.858323
