19
Iteration:  1690
 C         0.299982         0.071624        -1.466631
 C        -0.636746        -0.125545        -0.474309
 C        -1.616309        -0.031879         0.325124
 C        -2.938659         0.086483         1.122051
 O        -2.790019         0.393380         2.530995
 C        -3.796803         1.210214         0.435883
 C        -3.938945         0.931623        -1.069072
 C        -3.567135         1.875803        -2.110134
 O        -4.892392         1.913408        -1.739981
 H         0.117577         1.071240        -1.915202
 H         1.335793        -0.029756        -1.113867
 H         0.381247        -0.611899        -2.309001
 H        -3.538770        -0.911219         0.946873
 H        -2.924802        -0.436687         2.953670
 H        -4.803646         1.151980         0.905359
 H        -3.291956         2.246121         0.516811
 H        -3.951507        -0.128938        -1.396412
 H        -2.735059         2.639808        -1.963496
 H        -3.319585         1.470225        -3.142677
