19
Iteration:  1421
 C         0.730933        -0.061184        -0.979944
 C        -0.647656        -0.144842        -0.551423
 C        -1.761478        -0.007998         0.020176
 C        -2.889280         0.161019         0.906025
 O        -2.516007         0.254313         2.277041
 C        -3.967166         1.141333         0.411610
 C        -4.292273         0.965664        -1.035475
 C        -3.674637         1.766902        -2.114518
 O        -5.014823         2.153686        -1.539359
 H         1.107566        -0.369966        -1.893480
 H         0.890611         0.971710        -1.074442
 H         1.301707        -0.557456        -0.231001
 H        -3.388550        -0.836926         0.946319
 H        -2.011164         1.097384         2.496568
 H        -4.871523         1.150106         1.057505
 H        -3.511013         2.103096         0.679377
 H        -4.578756        -0.086249        -1.272341
 H        -2.768732         2.361199        -1.933054
 H        -3.649384         1.374012        -3.178234
