19
Iteration:  3821
 C         1.272716        -0.201490        -0.456677
 C        -0.061679        -0.215635        -0.093978
 C        -1.140855         0.036114         0.480990
 C        -2.593305         0.161774         0.504622
 O        -3.149008         0.337876         1.830230
 C        -3.234279         1.322698        -0.290256
 C        -4.634227         1.202420        -0.808641
 C        -5.060843         1.251739        -2.230263
 O        -5.184455         2.370290        -1.359067
 H         1.676468        -1.024660        -1.077293
 H         1.604209         0.724252        -1.100107
 H         2.072535        -0.181930         0.260081
 H        -2.773313        -0.936331         0.199804
 H        -2.306087         0.408662         2.280319
 H        -3.320977         2.102191         0.395386
 H        -2.549855         1.765519        -1.049927
 H        -5.232868         0.721783        -0.022782
 H        -4.320540         1.265631        -3.059575
 H        -6.089319         0.734320        -2.352587
