19
Iteration:  4786charge 0 multiplicity 1
 C         0.962190        -0.364966        -0.720303
 C        -0.421327        -0.223980        -0.120286
 C        -1.565052        -0.006440         0.063069
 C        -2.790029         0.274097         0.684157
 O        -2.789289         0.243206         2.188456
 C        -3.499905         1.553447         0.178151
 C        -4.472960         1.234805        -0.870518
 C        -4.276613         1.299922        -2.315990
 O        -5.074170         2.308366        -1.565856
 H         1.604065         0.559807        -0.587212
 H         1.668578        -1.019395        -0.311629
 H         1.054878        -0.685359        -1.757565
 H        -3.384040        -0.622611         0.423071
 H        -1.831021         0.171695         2.404449
 H        -4.118893         1.711785         1.045189
 H        -2.912546         2.433017        -0.189677
 H        -5.268690         0.533427        -0.649199
 H        -3.339794         1.805212        -2.689081
 H        -4.889450         0.683918        -3.146035
