19
Iteration:   578charge 0 multiplicity 1
 C         1.285517        -0.014677        -0.609770
 C        -0.104184        -0.170986        -0.188457
 C        -1.165484         0.020456         0.375858
 C        -2.592240         0.083703         0.411826
 O        -3.284805        -0.205377         1.711289
 C        -3.149101         1.416321        -0.027500
 C        -4.576618         1.207282        -0.780223
 C        -4.930022         1.455877        -2.139173
 O        -5.208124         2.561258        -1.214558
 H         1.254488         0.592791        -1.495844
 H         1.652548         0.621054         0.175643
 H         1.905105        -0.881267        -0.702156
 H        -2.871799        -0.788464        -0.198659
 H        -2.583585        -0.619870         2.191684
 H        -3.171061         1.915612         0.877240
 H        -2.599368         1.948294        -0.763337
 H        -5.142321         0.667503         0.031558
 H        -4.031006         1.610107        -2.769958
 H        -5.747087         0.858312        -2.525156
