19
Iteration:  2584
 C         1.263907        -0.159355        -0.525534
 C        -0.136837         0.138149        -0.020784
 C        -1.345140         0.130159         0.125852
 C        -2.744695         0.024188         0.438499
 O        -2.913456        -0.291226         1.795742
 C        -3.340955         1.485784         0.095369
 C        -4.553822         1.229135        -0.795457
 C        -4.628520         1.576993        -2.282238
 O        -5.393290         2.308867        -1.275480
 H         1.247478        -0.730141        -1.471750
 H         1.870865         0.767489        -0.704293
 H         1.623852        -0.821044         0.286614
 H        -3.131978        -0.774613        -0.216699
 H        -2.239960         0.253553         2.260300
 H        -3.690946         1.994107         0.959043
 H        -2.616256         2.033316        -0.440423
 H        -5.114804         0.398433        -0.394246
 H        -3.903244         2.189751        -2.853915
 H        -5.308577         0.893167        -2.895468
