19
Iteration:  2343charge 0 multiplicity 1
 C         1.417656        -0.032517         0.569860
 C         0.006911         0.060305         0.216163
 C        -1.161833         0.014445        -0.182921
 C        -2.583607        -0.007595        -0.410157
 O        -3.143998        -0.187984         0.885169
 C        -2.989250         1.446705        -0.908630
 C        -4.336803         1.815942        -0.438218
 C        -5.570598         1.018395        -0.805728
 O        -5.348327         2.314130        -1.379429
 H         1.565826        -1.059146         0.765904
 H         1.924964         0.270671        -0.328537
 H         1.801450         0.485717         1.433593
 H        -3.051403        -0.760962        -1.080242
 H        -2.523000        -0.193076         1.586862
 H        -2.130201         2.136300        -0.513276
 H        -2.854268         1.367902        -2.034606
 H        -4.217324         2.404741         0.458471
 H        -5.582102         0.128783        -1.499290
 H        -6.451666         1.004030        -0.127483
