19
Iteration:  1339charge 0 multiplicity 1
 C         0.916640        -0.097771        -1.075724
 C        -0.379535        -0.196803        -0.246562
 C        -1.379798         0.135920         0.343107
 C        -2.756712         0.130315         0.777972
 O        -3.055683         0.059057         2.144839
 C        -3.493269         1.455904         0.217061
 C        -4.422112         1.069163        -0.919817
 C        -4.057292         1.624680        -2.288547
 O        -5.197732         2.181262        -1.407847
 H         0.730493        -1.021547        -1.645974
 H         1.100343         0.771844        -1.710778
 H         1.830378        -0.265584        -0.499284
 H        -3.134438        -0.738711         0.298986
 H        -2.228905         0.066072         2.667776
 H        -4.078354         1.794939         1.061670
 H        -2.695012         2.131910        -0.065733
 H        -4.827409         0.054116        -0.827559
 H        -3.460655         2.517821        -2.382616
 H        -4.321573         0.976749        -3.088096
