19
Iteration:  2218
 C         1.382416        -0.402309         0.661591
 C         0.167526         0.068317         0.101923
 C        -1.043290         0.227243        -0.198589
 C        -2.476216         0.192451        -0.385372
 O        -3.076863        -0.053473         0.870465
 C        -3.085952         1.541337        -0.916094
 C        -4.516602         1.771702        -0.401014
 C        -5.534041         0.895472        -0.881689
 O        -5.463212         2.229271        -1.316702
 H         1.098470        -1.207598         1.384809
 H         2.092004        -0.803495        -0.077289
 H         1.888560         0.480619         1.058534
 H        -2.777491        -0.700848        -0.976429
 H        -2.511953         0.365878         1.529985
 H        -2.247625         2.286741        -0.797347
 H        -3.190703         1.505414        -1.997587
 H        -4.715806         2.504490         0.391832
 H        -5.227104         0.012551        -1.534193
 H        -6.495180         0.808848        -0.372834
