19
Iteration:  2723
 C         0.893218         0.049169        -0.747511
 C        -0.530875        -0.077220        -0.523970
 C        -1.598176         0.043444         0.004909
 C        -2.914643        -0.058529         0.807127
 O        -2.544760         0.071736         2.148187
 C        -3.827070         1.123606         0.380248
 C        -4.282702         1.102814        -1.066138
 C        -3.900141         2.036695        -2.117431
 O        -5.267557         2.016160        -1.490033
 H         1.279680         0.191607        -1.772947
 H         1.223363         0.952720        -0.271372
 H         1.312979        -0.920147        -0.410124
 H        -3.318923        -1.068164         0.813841
 H        -1.988768         0.842168         2.079882
 H        -4.821005         1.063187         1.004839
 H        -3.206874         2.015296         0.773434
 H        -4.523319         0.063220        -1.347482
 H        -3.236509         2.829865        -1.848357
 H        -3.797102         1.562741        -3.124725
