19
Iteration:  2381
 C         1.480228         0.163960         0.366423
 C         0.026094        -0.089705         0.175327
 C        -1.162410        -0.120142        -0.106652
 C        -2.626145        -0.021690        -0.218695
 O        -3.236911        -0.309945         1.007423
 C        -3.000272         1.402329        -0.767799
 C        -4.402433         1.830173        -0.431811
 C        -5.558706         1.143491        -0.973944
 O        -5.227542         2.352322        -1.450047
 H         2.035936        -0.850971         0.316912
 H         2.029827         0.742790        -0.445507
 H         1.731089         0.771323         1.290108
 H        -2.968287        -0.846807        -0.950575
 H        -2.621904         0.099602         1.664061
 H        -2.307842         2.137575        -0.455651
 H        -2.929996         1.396699        -1.858710
 H        -4.676283         2.252524         0.558282
 H        -5.360824         0.405673        -1.717396
 H        -6.580640         1.092808        -0.589298
