19
Iteration:  4568charge 0 multiplicity 1
 C         0.716172        -0.608822        -1.120340
 C        -0.477569        -0.231224        -0.361779
 C        -1.495122        -0.017755         0.325164
 C        -2.903295         0.262554         0.995115
 O        -2.722279         0.755820         2.367058
 C        -3.782846         1.340500         0.386225
 C        -4.052674         1.077781        -1.118301
 C        -3.959184         2.185034        -2.173496
 O        -5.227857         1.584376        -1.774662
 H         1.226347         0.259959        -1.703588
 H         1.471577        -1.086086        -0.504744
 H         0.407910        -1.334432        -1.919584
 H        -3.326330        -0.772698         1.024953
 H        -2.046375         0.179836         2.706369
 H        -4.774559         1.221488         0.980684
 H        -3.270181         2.313627         0.699173
 H        -3.677672         0.103011        -1.464782
 H        -3.813792         3.264081        -2.001717
 H        -3.538938         1.904012        -3.203845
