19
Iteration:   780
 C         1.574305        -0.257556         0.061805
 C         0.141577         0.124960        -0.127282
 C        -1.062901         0.179271         0.159701
 C        -2.495829         0.114496        -0.004890
 O        -3.366975        -0.381848         1.119153
 C        -3.100296         1.429451        -0.510044
 C        -4.608853         1.519455        -0.402521
 C        -5.478985         1.163910        -1.532087
 O        -5.180160         2.600304        -1.180479
 H         2.146471         0.653205        -0.176935
 H         1.515614        -0.394308         1.169283
 H         1.753288        -1.094894        -0.647571
 H        -2.718147        -0.682968        -0.789002
 H        -2.847316        -0.932932         1.693255
 H        -2.796104         2.230984         0.243370
 H        -2.984649         1.754250        -1.533252
 H        -5.341983         1.518501         0.475937
 H        -5.017163         0.727197        -2.496148
 H        -6.580593         1.037501        -1.434607
