19
Iteration:  3361
 C         1.460918         0.058018        -0.005413
 C         0.063899        -0.140281         0.145683
 C        -1.157704        -0.012356         0.029507
 C        -2.660618        -0.051664         0.086555
 O        -3.177863        -0.148618         1.445088
 C        -3.069166         1.341491        -0.476040
 C        -4.641784         1.650930        -0.515509
 C        -5.455980         1.151620        -1.573078
 O        -5.114936         2.531693        -1.533253
 H         1.911799         0.017511         1.016321
 H         1.994063        -0.728877        -0.684216
 H         1.613943         1.025684        -0.518778
 H        -3.187940        -0.793125        -0.577982
 H        -2.536995        -0.739089         1.848531
 H        -2.546019         2.180936         0.132386
 H        -2.723937         1.322074        -1.540742
 H        -4.917981         1.824472         0.499334
 H        -4.878911         0.566018        -2.328297
 H        -6.518364         0.819398        -1.476538
