19
Iteration:  1517
 C         0.364476        -0.060890        -1.391595
 C        -0.837374         0.013094        -0.512754
 C        -1.751733         0.099648         0.215505
 C        -2.893205         0.009188         1.059672
 O        -2.596429         0.604550         2.371161
 C        -4.179832         0.722578         0.382679
 C        -4.128109         0.867552        -1.135229
 C        -3.328934         1.791885        -1.913745
 O        -4.699678         2.135929        -1.583098
 H         0.236463         0.014089        -2.550942
 H         0.978164         0.895275        -1.164138
 H         0.922070        -1.026475        -1.158585
 H        -3.016051        -1.036697         1.354974
 H        -1.939417         1.323988         2.123180
 H        -5.113465         0.343760         0.869568
 H        -4.050367         1.801140         0.756787
 H        -4.528650         0.038854        -1.725769
 H        -2.604046         2.321884        -1.220789
 H        -3.073192         1.755881        -3.059744
