19
Iteration:  3457
 C         1.432191        -0.199928         0.550348
 C         0.041680        -0.127600         0.207381
 C        -1.067431        -0.055779        -0.161536
 C        -2.540125         0.212729        -0.259021
 O        -2.929160        -0.155133         1.110813
 C        -3.044336         1.628069        -0.854708
 C        -4.544073         1.814718        -0.454051
 C        -5.567453         0.952800        -0.988761
 O        -5.418041         2.319508        -1.553750
 H         1.640566        -0.822735         1.363997
 H         2.046460        -0.623083        -0.262058
 H         1.923113         0.772020         0.633553
 H        -2.809190        -0.456371        -1.096959
 H        -3.845086         0.148455         1.349150
 H        -2.321677         2.460499        -0.576195
 H        -3.253705         1.482892        -1.928972
 H        -4.664592         2.223929         0.574244
 H        -5.189616         0.276996        -1.766767
 H        -6.489391         0.795965        -0.434714
