19
Iteration:  2968
 C         0.422987         0.445392        -1.328356
 C        -0.678000        -0.023006        -0.452574
 C        -1.743756        -0.139373         0.174807
 C        -2.936075        -0.048498         0.997009
 O        -2.747883         0.252680         2.404825
 C        -3.807549         1.091022         0.369157
 C        -4.101309         0.890111        -1.053316
 C        -3.420306         1.779978        -1.968616
 O        -4.848953         2.013179        -1.687619
 H         0.052035         1.428297        -1.531780
 H         1.452264         0.286937        -0.954756
 H         0.529245        -0.099916        -2.259027
 H        -3.596961        -0.910479         0.937926
 H        -3.334542        -0.359249         2.930741
 H        -4.716679         1.233565         1.133084
 H        -3.227311         2.017777         0.543428
 H        -4.644304        -0.007117        -1.358844
 H        -2.672414         2.437819        -1.465973
 H        -3.103495         1.353381        -3.025625
