19
Iteration:   573
 C         1.286881        -0.006853        -0.601707
 C        -0.135771        -0.148614        -0.202703
 C        -1.196091         0.028626         0.349708
 C        -2.597600         0.026664         0.384566
 O        -3.308496        -0.162405         1.689668
 C        -3.133839         1.430971        -0.039301
 C        -4.583838         1.206720        -0.741886
 C        -4.880478         1.433589        -2.126206
 O        -5.199550         2.545232        -1.188609
 H         1.416432         0.568762        -1.576532
 H         1.659423         0.695699         0.208177
 H         1.936411        -0.921373        -0.761495
 H        -2.934976        -0.892620        -0.141584
 H        -2.679204        -0.606541         2.327552
 H        -3.136488         1.965311         1.026193
 H        -2.369481         1.980186        -0.724074
 H        -5.133169         0.572400        -0.032564
 H        -4.037061         1.614065        -2.780653
 H        -5.713495         0.840702        -2.553338
