19
Iteration:  3293charge 0 multiplicity 1
 C         1.454812        -0.006934        -0.382968
 C        -0.005499         0.113388        -0.083354
 C        -1.190072         0.099097         0.243036
 C        -2.665377        -0.055271         0.384751
 O        -3.366592        -0.246710         1.678722
 C        -3.140761         1.281868        -0.346768
 C        -4.592423         1.371200        -0.648342
 C        -5.109962         1.240574        -1.979238
 O        -5.051835         2.579190        -1.280424
 H         1.855943         0.204920         0.569943
 H         1.757417        -1.069314        -0.638799
 H         1.714486         0.561627        -1.311592
 H        -2.885005        -1.044865        -0.093331
 H        -3.715377         0.637467         1.821277
 H        -2.863046         2.232423         0.308917
 H        -2.551870         1.272125        -1.336580
 H        -5.255888         1.190832         0.261342
 H        -4.311938         0.962883        -2.733836
 H        -6.057070         0.799942        -2.186421
