19
Iteration:  1997charge 0 multiplicity 1
 C         1.127330         0.197902        -0.757385
 C        -0.202842        -0.055384        -0.183360
 C        -1.307840        -0.210666         0.394942
 C        -2.707092         0.043689         0.635755
 O        -3.155030         0.077637         2.052398
 C        -3.124847         1.300823        -0.093060
 C        -4.580406         1.205557        -0.735452
 C        -4.804673         1.230356        -2.232625
 O        -5.017233         2.395488        -1.489476
 H         1.745770         0.683615        -0.026892
 H         1.579027        -0.597428        -1.274736
 H         0.908431         1.004011        -1.398630
 H        -3.171409        -0.820906         0.072146
 H        -2.773380         0.862009         2.470180
 H        -3.096107         2.148215         0.614472
 H        -2.302451         1.470443        -0.871770
 H        -5.359032         0.872129        -0.054919
 H        -3.932276         1.223294        -2.886254
 H        -5.634758         0.622081        -2.709481
