19
Iteration:  1295charge 0 multiplicity 1
 C         1.061463        -0.210643        -0.925170
 C        -0.264771        -0.008015        -0.258006
 C        -1.291962         0.008930         0.372188
 C        -2.767050         0.147867         0.684918
 O        -3.039992        -0.018256         2.132930
 C        -3.426256         1.490588         0.171624
 C        -4.405515         1.258221        -0.868218
 C        -4.407662         1.501041        -2.322431
 O        -5.206001         2.277387        -1.419989
 H         1.203343        -1.166310        -1.424909
 H         1.116697         0.554984        -1.686480
 H         1.861689         0.046330        -0.244857
 H        -3.391319        -0.579581         0.144389
 H        -2.571863        -0.878794         2.247318
 H        -3.974894         1.933925         1.003930
 H        -2.713987         2.200771        -0.237887
 H        -5.026824         0.376588        -0.657261
 H        -3.509781         1.934152        -2.742979
 H        -5.034016         0.773544        -2.776123
