19
Iteration:  2177
 C         1.460332        -0.258683         0.462216
 C         0.115604        -0.145222         0.030259
 C        -1.105407         0.102949        -0.157973
 C        -2.524558         0.267814        -0.148502
 O        -3.047987        -0.098503         1.082920
 C        -3.004948         1.650431        -0.757823
 C        -4.527875         1.756060        -0.451692
 C        -5.642326         0.853402        -1.154599
 O        -5.391525         2.264143        -1.416459
 H         1.497789        -0.765982         1.392746
 H         2.011497        -0.744265        -0.291667
 H         2.053094         0.599724         0.706814
 H        -2.910962        -0.552641        -0.875727
 H        -3.081322         0.577034         1.768578
 H        -2.555667         2.546517        -0.182615
 H        -2.783931         1.826399        -1.806128
 H        -4.593818         2.201972         0.583600
 H        -5.344524         0.141073        -1.947929
 H        -6.509355         0.387915        -0.633996
