19
Iteration:   863charge 0 multiplicity 1
 C         1.471816         0.041215         0.419072
 C         0.070586        -0.161381         0.073769
 C        -1.114689        -0.182474        -0.175294
 C        -2.613488        -0.007022        -0.266841
 O        -3.091623        -0.167801         1.105505
 C        -3.094441         1.386139        -0.811258
 C        -4.475709         1.594829        -0.465684
 C        -5.668760         1.210058        -1.248825
 O        -5.204099         2.606557        -1.114251
 H         1.692624         1.052604         0.749287
 H         1.888207        -0.674388         1.107228
 H         2.068598        -0.104125        -0.487493
 H        -3.033371        -0.691791        -0.959113
 H        -2.371911        -0.657890         1.569598
 H        -2.485610         2.183347        -0.420609
 H        -3.146419         1.532416        -1.918556
 H        -4.730403         1.575088         0.588434
 H        -5.360226         0.794440        -2.176959
 H        -6.691429         0.988414        -0.955250
