19
Iteration:  2870
 C        -0.087189         0.338557        -1.734237
 C        -0.820955         0.270992        -0.482216
 C        -1.538361         0.205100         0.456702
 C        -2.915471        -0.044740         1.023033
 O        -2.967843         0.121400         2.442377
 C        -4.030688         0.870439         0.492777
 C        -3.979903         0.850460        -1.068836
 C        -3.082485         1.794610        -1.756804
 O        -4.517566         1.948377        -1.792803
 H        -0.752684         1.014686        -2.355657
 H         0.943178         0.875822        -1.711196
 H         0.189652        -0.666264        -2.100770
 H        -3.007332        -1.081737         0.641248
 H        -2.133172         0.558905         2.808973
 H        -5.061228         0.593716         0.836405
 H        -3.815765         1.858011         0.872319
 H        -4.111618        -0.129418        -1.543986
 H        -2.517180         2.420242        -0.997599
 H        -2.488251         1.596361        -2.718575
