19
Iteration:  2936charge 0 multiplicity 1
 C         0.155266         0.456660        -1.453043
 C        -0.968537         0.141312        -0.631591
 C        -1.691656        -0.107745         0.372228
 C        -2.968293        -0.110743         1.060023
 O        -2.748080         0.201871         2.422963
 C        -3.863396         1.002402         0.458286
 C        -3.893679         0.921765        -1.025699
 C        -3.248068         1.764791        -1.966313
 O        -4.659639         1.968283        -1.723262
 H         0.070456         1.464425        -1.920447
 H         1.126577         0.719093        -0.944093
 H         0.364205        -0.194048        -2.309722
 H        -3.574581        -1.021972         1.039946
 H        -3.584830         0.533308         2.698551
 H        -4.953322         0.836408         0.828428
 H        -3.470895         1.978388         0.714113
 H        -4.338127        -0.020293        -1.375741
 H        -2.500895         2.383660        -1.421660
 H        -2.848407         1.353547        -2.985323
