19
Iteration:   180
 C         1.292592        -0.091661         0.501959
 C         0.002310         0.066025        -0.047006
 C        -1.181915         0.005816        -0.383485
 C        -2.682438        -0.008569        -0.361017
 O        -3.199860        -0.575742         0.816489
 C        -2.952883         1.610134        -0.601275
 C        -4.336824         1.853398        -0.313082
 C        -5.323646         1.091794        -1.048456
 O        -5.278849         2.512825        -1.137773
 H         1.581389        -1.149295         0.597300
 H         2.026059         0.477024        -0.084007
 H         1.309012         0.298817         1.518508
 H        -3.305992        -0.436788        -1.119452
 H        -3.082819        -0.119102         1.640328
 H        -2.192227         2.138068        -0.017637
 H        -2.636104         1.841929        -1.623699
 H        -4.637946         1.961054         0.814804
 H        -5.091124         0.519120        -1.895309
 H        -6.117865         0.737856        -0.426958
