19
Iteration:   350charge 0 multiplicity 1
 C         1.606652        -0.131740         0.035076
 C         0.161056        -0.240405         0.002964
 C        -1.045939        -0.116432        -0.061587
 C        -2.567885         0.179415        -0.011542
 O        -3.295542        -0.131304         1.088738
 C        -3.129943         1.631469        -0.334089
 C        -4.627195         1.559838        -0.312463
 C        -5.447240         1.111152        -1.489678
 O        -5.257619         2.501639        -1.292095
 H         2.057845        -0.433087        -0.927192
 H         1.896797         0.928480         0.076560
 H         2.044121        -0.505509         0.991635
 H        -2.858372        -0.438487        -0.808596
 H        -3.489237        -1.053090         1.080326
 H        -2.885433         2.148260         0.622118
 H        -2.621485         2.086991        -1.218514
 H        -5.160713         1.596039         0.566496
 H        -5.019441         0.738671        -2.462651
 H        -6.506510         0.682139        -1.353903
