19
Iteration:  4402charge 0 multiplicity 1
 C         0.427554        -0.253670        -1.338532
 C        -0.756661        -0.184130        -0.410096
 C        -1.692865         0.007606         0.335188
 C        -2.929749         0.245971         1.097776
 O        -2.536767         0.562586         2.538898
 C        -3.932782         1.398186         0.372942
 C        -4.086552         0.992441        -1.050846
 C        -3.528947         1.720313        -2.162184
 O        -4.916685         1.732569        -1.831811
 H         0.252985         0.585301        -2.147281
 H         1.314024        -0.133158        -0.685530
 H         0.282789        -1.248995        -1.767161
 H        -3.445259        -0.704399         1.133040
 H        -2.294315         1.527048         2.267202
 H        -4.938366         1.430530         0.828133
 H        -3.347637         2.397560         0.402421
 H        -4.183247        -0.051852        -1.173876
 H        -3.023665         2.686199        -1.892683
 H        -3.343342         1.248894        -3.119197
