19
Iteration:  4333
 C         0.485782        -0.200153        -1.200277
 C        -0.684295        -0.082009        -0.385686
 C        -1.648883         0.189438         0.291113
 C        -2.866766         0.222626         0.987318
 O        -2.558754         0.627483         2.380197
 C        -4.035752         1.186277         0.357511
 C        -4.439929         0.859522        -1.052463
 C        -3.635330         1.300520        -2.209289
 O        -4.646026         2.174877        -1.669535
 H         0.435306         0.332605        -2.111310
 H         1.426016         0.116815        -0.647760
 H         0.590850        -1.280246        -1.445101
 H        -3.198132        -0.796554         1.228672
 H        -1.669072         1.006817         2.567909
 H        -4.980875         1.067777         0.887301
 H        -3.663622         2.253123         0.271411
 H        -5.193039         0.040730        -1.026145
 H        -2.596523         1.619200        -2.122244
 H        -3.949436         0.693965        -3.146862
