19
Iteration:  4068
 C         1.094201        -0.256252        -0.707608
 C        -0.215450        -0.067381        -0.122723
 C        -1.338405         0.090259         0.207029
 C        -2.757683         0.244103         0.552892
 O        -2.921398         0.395412         2.020861
 C        -3.508728         1.547048         0.146930
 C        -4.598713         1.185892        -0.723680
 C        -4.478165         1.063452        -2.207258
 O        -5.101249         2.187327        -1.606449
 H         1.080098        -0.661932        -1.748746
 H         1.755604         0.614990        -0.704424
 H         1.746708        -1.103683        -0.242986
 H        -3.401440        -0.649769         0.165346
 H        -2.145473        -0.145675         2.297094
 H        -3.849248         2.058617         1.055178
 H        -2.935356         2.267719        -0.248424
 H        -5.467039         0.678609        -0.208315
 H        -3.630514         1.244581        -2.790229
 H        -5.150562         0.293863        -2.674418
