19
Iteration:  4654charge 0 multiplicity 1
 C         0.955238        -0.593245        -0.678023
 C        -0.432418        -0.249315        -0.325332
 C        -1.558809        -0.088083         0.070766
 C        -2.856333         0.232343         0.844007
 O        -2.510029         0.571766         2.165989
 C        -3.768234         1.440230         0.382102
 C        -4.316833         1.177058        -1.066314
 C        -4.051703         1.972152        -2.238516
 O        -5.393217         1.844532        -1.662100
 H         1.501106         0.369504        -0.887864
 H         1.372051        -1.080509         0.144044
 H         1.091872        -1.172262        -1.577154
 H        -3.459076        -0.691633         0.819959
 H        -1.712098         0.105566         2.284237
 H        -4.658583         1.819871         0.890743
 H        -3.164121         2.397144         0.357820
 H        -4.471049         0.154360        -1.354376
 H        -3.687976         2.997235        -2.105534
 H        -4.009822         1.338876        -3.222568
