19
Iteration:  4147
 C         0.913887        -0.002797        -0.979829
 C        -0.403311        -0.026517        -0.351718
 C        -1.429746        -0.065469         0.370108
 C        -2.810841         0.203999         0.756955
 O        -2.949920         0.392653         2.212427
 C        -3.432409         1.511888         0.253487
 C        -4.627642         1.197380        -0.692252
 C        -4.391959         0.915813        -2.240395
 O        -4.723550         2.221580        -1.759050
 H         0.950949         0.027670        -2.072818
 H         1.541950         0.929795        -0.668632
 H         1.548008        -0.937960        -0.637659
 H        -3.579285        -0.579647         0.480116
 H        -2.429396        -0.352970         2.646183
 H        -3.959426         1.858566         1.136461
 H        -2.861920         2.218635        -0.359005
 H        -5.553609         0.758133        -0.521973
 H        -3.412300         0.643299        -2.772131
 H        -5.267661         0.399645        -2.600717
