19
Iteration:  3356
 C         1.503902         0.073129        -0.043754
 C         0.030739        -0.159969         0.175205
 C        -1.163770        -0.012425         0.027842
 C        -2.692807        -0.069990         0.119228
 O        -3.198077        -0.161872         1.451912
 C        -3.073037         1.375243        -0.455155
 C        -4.635481         1.618316        -0.523968
 C        -5.446615         1.138646        -1.621051
 O        -5.099375         2.561024        -1.520922
 H         2.194407         0.120556         0.807380
 H         1.853293        -0.733451        -0.604045
 H         1.726340         1.029233        -0.532762
 H        -3.112169        -0.756014        -0.628350
 H        -2.418104        -0.569865         1.910730
 H        -2.586253         2.192047         0.051050
 H        -2.695361         1.297365        -1.488746
 H        -4.987038         1.751352         0.542231
 H        -5.022205         0.466176        -2.371033
 H        -6.471180         0.857199        -1.461322
