19
Iteration:  1628
 C         0.087510        -0.045831        -1.599385
 C        -0.870824         0.205745        -0.569395
 C        -1.681042         0.095886         0.377106
 C        -2.927321         0.104231         1.177369
 O        -2.814142         0.175434         2.634570
 C        -3.821576         1.230922         0.554101
 C        -3.881934         1.033857        -1.034320
 C        -3.309811         1.932069        -2.071299
 O        -4.736429         1.682357        -1.927791
 H        -0.238942         0.634506        -2.460560
 H         1.137517         0.280845        -1.273997
 H        -0.027276        -1.153535        -1.855161
 H        -3.518106        -0.780551         0.927508
 H        -1.940448         0.273836         2.971980
 H        -4.799475         1.218714         1.022971
 H        -3.550069         2.243544         0.867987
 H        -3.705761        -0.016083        -1.339985
 H        -2.784638         2.926782        -1.862440
 H        -2.889309         1.542454        -3.028365
