19
Iteration:  2249
 C         1.379744        -0.382756         0.699189
 C         0.088139         0.035102         0.330602
 C        -0.980869         0.198708        -0.344760
 C        -2.425253         0.258963        -0.431775
 O        -3.047757        -0.067271         0.871560
 C        -3.012444         1.596366        -1.050204
 C        -4.413104         1.681566        -0.515467
 C        -5.675605         0.969155        -0.721427
 O        -5.547602         2.213932        -1.334721
 H         1.348595        -1.206575         1.501804
 H         1.992959        -0.453669        -0.250029
 H         1.993909         0.316298         1.356390
 H        -2.770870        -0.443302        -1.145131
 H        -2.345017        -0.654124         1.267101
 H        -2.556246         2.511497        -0.736159
 H        -3.010354         1.578045        -2.151119
 H        -4.441005         2.276229         0.383118
 H        -5.852760         0.031190        -1.274712
 H        -6.364081         1.010118         0.100796
