19
Iteration:   559
 C         1.297753         0.038250        -0.589219
 C        -0.107012        -0.058329        -0.231474
 C        -1.219637        -0.033345         0.253902
 C        -2.740947        -0.028071         0.395051
 O        -3.342673        -0.068154         1.658194
 C        -3.162644         1.377054        -0.091409
 C        -4.515744         1.332471        -0.620392
 C        -4.756484         1.419443        -2.080843
 O        -5.158951         2.390694        -1.136113
 H         1.385309         0.466508        -1.596876
 H         1.910897         0.575623         0.125013
 H         1.657529        -0.989046        -0.523107
 H        -3.134157        -0.738923        -0.360680
 H        -2.838376        -0.677378         2.240836
 H        -3.233014         2.014215         0.808372
 H        -2.526607         1.848668        -0.835980
 H        -5.137284         0.660672        -0.080237
 H        -3.955879         1.765490        -2.760694
 H        -5.651209         0.937663        -2.515278
