19
Iteration:  3073charge 0 multiplicity 1
 C         1.104046        -0.176609        -0.663112
 C        -0.317436         0.097434        -0.419277
 C        -1.428979         0.244545         0.010172
 C        -2.808911         0.187163         0.617816
 O        -2.673160         0.083131         2.056881
 C        -3.896705         1.232497         0.399332
 C        -4.564654         1.011365        -0.929440
 C        -4.043004         1.590029        -2.163951
 O        -5.173166         2.179765        -1.463001
 H         1.662107         0.767356        -0.507790
 H         1.482244        -0.937610         0.036806
 H         1.031423        -0.408668        -1.745411
 H        -3.276691        -0.713704         0.231192
 H        -3.397126        -0.585364         2.298930
 H        -4.483357         1.180238         1.214625
 H        -3.385787         2.197580         0.383709
 H        -5.075729         0.043664        -1.090801
 H        -3.289974         2.300304        -2.092321
 H        -4.243531         1.310704        -3.173785
