19
Iteration:  1998
 C         1.123291         0.201097        -0.754458
 C        -0.195055        -0.061643        -0.177770
 C        -1.314015        -0.205329         0.395955
 C        -2.704369         0.042301         0.628393
 O        -3.152265         0.074212         2.054985
 C        -3.125245         1.299136        -0.097630
 C        -4.578907         1.213987        -0.736902
 C        -4.807685         1.231012        -2.231056
 O        -5.015918         2.388887        -1.486042
 H         1.766260         0.661844        -0.032906
 H         1.583593        -0.586424        -1.269153
 H         0.904955         0.998093        -1.405742
 H        -3.155120        -0.818438         0.069378
 H        -2.799125         0.872426         2.439966
 H        -3.096792         2.172048         0.607795
 H        -2.315658         1.492261        -0.885505
 H        -5.366219         0.893452        -0.074147
 H        -3.937675         1.193611        -2.881678
 H        -5.665906         0.649014        -2.702237
