19
Iteration:   209
 C         1.417456        -0.106357         0.508711
 C         0.099689        -0.157354         0.047111
 C        -1.072499        -0.125642        -0.298837
 C        -2.509583         0.098877        -0.426169
 O        -3.088404        -0.408462         0.771757
 C        -3.056650         1.630488        -0.533412
 C        -4.527920         1.803670        -0.225235
 C        -5.614340         1.191945        -1.042387
 O        -5.310013         2.516775        -1.255105
 H         1.930112        -1.073915         0.453640
 H         2.009685         0.581746        -0.082697
 H         1.405021         0.285243         1.540634
 H        -3.040623        -0.377873        -1.268649
 H        -2.676134        -1.255668         1.025746
 H        -2.495109         2.197502         0.211489
 H        -2.902925         1.918268        -1.547774
 H        -4.814796         2.145100         0.694290
 H        -5.276722         0.440034        -1.762256
 H        -6.594893         0.969885        -0.650075
