19
Iteration:  1407charge 0 multiplicity 1
 C         0.737718        -0.058952        -0.971973
 C        -0.604588        -0.100471        -0.489659
 C        -1.713218         0.040238         0.101117
 C        -2.944792         0.035580         0.944012
 O        -2.510508         0.185558         2.317540
 C        -3.845344         1.196979         0.429360
 C        -4.208875         1.020374        -1.042510
 C        -3.843791         1.771079        -2.228192
 O        -5.017784         2.160720        -1.577009
 H         0.665013        -0.708672        -1.844356
 H         1.183376         0.933029        -1.115072
 H         1.444817        -0.488591        -0.270602
 H        -3.472690        -0.870988         0.825411
 H        -1.996111         0.976793         2.316275
 H        -4.815073         1.085327         0.886569
 H        -3.495232         2.268700         0.448659
 H        -4.833772         0.190335        -1.329907
 H        -3.034463         2.561653        -2.191201
 H        -4.102807         1.238899        -3.195021
