19
Iteration:  2220
 C         1.379264        -0.418078         0.660676
 C         0.173655         0.082769         0.118517
 C        -1.059441         0.216200        -0.189281
 C        -2.475652         0.201227        -0.402024
 O        -3.065395        -0.052779         0.868339
 C        -3.081158         1.536926        -0.926473
 C        -4.522558         1.780482        -0.425130
 C        -5.538869         0.886405        -0.858793
 O        -5.457525         2.230406        -1.313891
 H         1.110483        -1.130037         1.424123
 H         2.081684        -0.714990        -0.071567
 H         1.910232         0.409571         1.103231
 H        -2.812353        -0.694504        -1.074172
 H        -2.437553         0.298191         1.480453
 H        -2.251876         2.369486        -0.815527
 H        -3.165588         1.516106        -2.008756
 H        -4.693890         2.474186         0.455906
 H        -5.341102         0.006049        -1.517042
 H        -6.537530         0.788220        -0.339175
