19
Iteration:  2589
 C         1.231232        -0.187503        -0.524378
 C        -0.151742         0.133955        -0.063359
 C        -1.313818         0.161971         0.165007
 C        -2.728752         0.025110         0.400822
 O        -2.911484        -0.280511         1.825345
 C        -3.363279         1.454179         0.114501
 C        -4.543474         1.283248        -0.808345
 C        -4.642348         1.584006        -2.301998
 O        -5.398877         2.276441        -1.290579
 H         1.289391        -0.635968        -1.524942
 H         1.888543         0.674269        -0.623197
 H         1.727844        -0.721212         0.295791
 H        -3.154343        -0.915297        -0.027402
 H        -2.144747         0.158990         2.212457
 H        -3.754031         1.876197         1.113541
 H        -2.483298         2.083494        -0.368550
 H        -5.117987         0.406943        -0.382403
 H        -3.958822         2.288742        -2.773854
 H        -5.187510         0.976034        -2.985505
