19
Iteration:  1347
 C         0.845850        -0.127788        -1.063695
 C        -0.326623        -0.075038        -0.238559
 C        -1.424845         0.046804         0.340789
 C        -2.767145         0.126540         0.790765
 O        -2.986422         0.064255         2.195312
 C        -3.499784         1.404633         0.264348
 C        -4.429286         1.096097        -0.958909
 C        -4.028893         1.663271        -2.256739
 O        -5.199312         2.135033        -1.464312
 H         0.799057        -0.984353        -1.875574
 H         1.004781         0.787607        -1.772795
 H         1.787111        -0.407253        -0.441951
 H        -3.403926        -0.659447         0.261476
 H        -2.085399         0.135517         2.516453
 H        -4.134676         2.013752         0.967907
 H        -2.788450         2.115139        -0.126030
 H        -5.018925         0.145870        -1.021110
 H        -3.271290         2.404388        -2.242209
 H        -4.348902         1.231458        -3.202879
