19
Iteration:  1144charge 0 multiplicity 1
 C         1.230193        -0.143578        -0.194751
 C        -0.167958         0.007496        -0.077632
 C        -1.339143         0.060904        -0.189258
 C        -2.727584         0.050659         0.200398
 O        -2.914627        -0.224420         1.652437
 C        -3.224865         1.542985        -0.076404
 C        -4.687287         1.538437        -0.503696
 C        -5.008803         1.108288        -1.851759
 O        -5.029616         2.471466        -1.488528
 H         1.399400        -1.014365         0.452123
 H         1.513237        -0.295214        -1.222026
 H         1.804937         0.643822         0.274292
 H        -3.180896        -0.719688        -0.333168
 H        -2.281846         0.316837         2.138535
 H        -2.859113         2.034663         0.773006
 H        -2.502833         1.811993        -0.812216
 H        -5.405242         1.479851         0.304641
 H        -4.233608         0.689133        -2.570510
 H        -6.036002         0.712085        -2.050535
