19
Iteration:   963
 C         1.468945         0.017174         0.443263
 C         0.070911        -0.221600         0.113292
 C        -1.084211        -0.187981        -0.264491
 C        -2.546279        -0.066067        -0.237051
 O        -2.963985        -0.291035         1.088897
 C        -3.080103         1.383011        -0.617186
 C        -4.541702         1.716653        -0.366549
 C        -5.726827         1.274292        -1.274428
 O        -5.302314         2.633144        -1.371351
 H         1.591965         0.612925         1.325731
 H         2.073158        -0.881626         0.424801
 H         1.932610         0.536340        -0.380430
 H        -3.158511        -0.708931        -0.853102
 H        -2.393067         0.297896         1.656396
 H        -2.434918         2.141677        -0.122574
 H        -3.035807         1.506220        -1.772964
 H        -4.715671         2.030662         0.771118
 H        -5.707621         0.550258        -2.115527
 H        -6.615371         1.040267        -0.732346
