19
Iteration:  2335
 C         1.439122        -0.089050         0.646669
 C         0.022511         0.046369         0.150955
 C        -1.130176         0.110850        -0.184483
 C        -2.632660        -0.011201        -0.420100
 O        -3.169930        -0.156084         0.871241
 C        -2.897437         1.394561        -0.911093
 C        -4.337057         1.796888        -0.408765
 C        -5.582209         1.034028        -0.797758
 O        -5.409112         2.311593        -1.394522
 H         1.555400        -1.210428         0.767041
 H         2.132110         0.211575        -0.228819
 H         1.693523         0.675622         1.396481
 H        -2.919657        -0.894010        -1.160825
 H        -2.397855        -0.236114         1.413366
 H        -2.204475         2.194032        -0.622351
 H        -2.985088         1.526101        -2.043416
 H        -4.398615         2.392439         0.506697
 H        -5.646518         0.132221        -1.399212
 H        -6.157125         0.923460         0.075364
