19
Iteration:  3628
 C         1.441609        -0.198315         0.353852
 C         0.069529        -0.057047        -0.012033
 C        -1.177864         0.025569        -0.011468
 C        -2.636621         0.096876        -0.155906
 O        -3.190477        -0.022010         1.125649
 C        -3.053827         1.531441        -0.625553
 C        -4.510936         1.844018        -0.483808
 C        -5.571689         0.967788        -0.959937
 O        -5.136796         2.201401        -1.723739
 H         1.698147        -1.253990         0.672710
 H         2.137267        -0.003647        -0.365082
 H         1.778336         0.443764         1.168552
 H        -3.063032        -0.769907        -0.738289
 H        -2.504952         0.133158         1.740376
 H        -2.379618         2.265265         0.052558
 H        -2.610118         1.839291        -1.587266
 H        -4.637956         2.432242         0.477854
 H        -5.400693         0.050838        -1.507787
 H        -6.506398         1.058128        -0.376003
