19
Iteration:  4366
 C         0.447871        -0.253171        -1.260202
 C        -0.704441         0.015275        -0.475115
 C        -1.696259        -0.006779         0.221125
 C        -2.825572         0.120264         1.049813
 O        -2.693826         0.733451         2.477574
 C        -3.860748         1.198413         0.357475
 C        -4.282192         0.931984        -1.011643
 C        -3.548799         1.493681        -2.107203
 O        -4.846254         2.004762        -1.775449
 H         0.572778         0.251541        -2.169745
 H         1.449572        -0.137927        -0.756430
 H         0.469457        -1.318938        -1.535304
 H        -3.278408        -0.877572         1.263940
 H        -1.950418         1.424406         2.611882
 H        -4.704804         1.260394         1.051135
 H        -3.292241         2.200456         0.467345
 H        -4.819130        -0.070274        -1.141456
 H        -2.706508         2.129751        -1.911169
 H        -3.447093         0.931244        -3.122266
