19
Iteration:  1732
 C         0.569440         0.020877        -1.246458
 C        -0.658951         0.010301        -0.334937
 C        -1.641726        -0.213577         0.395562
 C        -2.821192        -0.023100         1.001713
 O        -2.689293         0.505308         2.321235
 C        -3.838816         1.052031         0.350458
 C        -4.193300         0.913092        -1.154836
 C        -3.711040         1.792243        -2.140766
 O        -4.954090         2.186306        -1.641556
 H         0.653489         0.995590        -1.680732
 H         1.488675        -0.407507        -0.872166
 H         0.336672        -0.599532        -2.079278
 H        -3.366639        -0.906229         1.097572
 H        -2.055182        -0.016497         2.839856
 H        -4.861425         1.032221         0.890246
 H        -3.138287         1.957961         0.405593
 H        -4.631754        -0.080357        -1.428149
 H        -2.799680         2.478222        -1.971644
 H        -3.772907         1.456847        -3.236833
