19
Iteration:  4783charge 0 multiplicity 1
 C         0.937764        -0.365365        -0.705872
 C        -0.392511        -0.220843        -0.135461
 C        -1.548639         0.004076         0.079372
 C        -2.770744         0.263293         0.696025
 O        -2.787787         0.249144         2.189729
 C        -3.501776         1.517491         0.165766
 C        -4.497204         1.234132        -0.881965
 C        -4.273503         1.330052        -2.338895
 O        -5.085792         2.316281        -1.556118
 H         1.553510         0.561235        -0.592255
 H         1.658209        -1.095468        -0.233325
 H         0.959669        -0.699300        -1.750286
 H        -3.400829        -0.657247         0.567349
 H        -1.760309         0.171452         2.319793
 H        -4.098941         1.774590         0.986685
 H        -2.955110         2.381239        -0.279492
 H        -5.266313         0.473705        -0.601283
 H        -3.376369         1.750785        -2.692452
 H        -4.773337         0.738883        -3.127109
