19
Iteration:  4740charge 0 multiplicity 1
 C         0.975245        -0.467243        -0.661094
 C        -0.308684        -0.131332        -0.258878
 C        -1.393658        -0.112749         0.204757
 C        -2.755369         0.152675         0.794611
 O        -2.716392         0.471290         2.250006
 C        -3.595412         1.295352         0.096209
 C        -4.610263         1.137358        -1.083572
 C        -4.276416         1.614607        -2.395436
 O        -5.219172         2.339012        -1.498524
 H         1.770598         0.331625        -0.712767
 H         1.543158        -1.222949        -0.048745
 H         0.972424        -0.977127        -1.632047
 H        -3.324716        -0.772831         0.597650
 H        -1.808221         0.315026         2.737245
 H        -4.273398         1.481050         0.855178
 H        -2.800540         2.082539         0.012401
 H        -5.371659         0.329704        -1.044403
 H        -3.325497         2.098213        -2.594483
 H        -4.835869         1.114585        -3.270264
