19
Iteration:   616charge 0 multiplicity 1
 C         1.300025        -0.109631        -0.548626
 C         0.066136        -0.013389         0.136985
 C        -1.160488         0.029665         0.228315
 C        -2.671497         0.051803         0.347192
 O        -3.028434        -0.339177         1.783878
 C        -3.293181         1.338435        -0.135621
 C        -4.707828         1.372892        -0.696766
 C        -4.996386         1.458367        -2.129361
 O        -5.243943         2.634205        -1.313948
 H         1.279484         0.437827        -1.541710
 H         2.177537         0.361549        -0.019055
 H         1.498798        -1.138264        -0.975343
 H        -3.119551        -0.709081        -0.341353
 H        -2.398510        -1.054924         1.990533
 H        -3.385173         2.136427         0.721791
 H        -2.583290         1.834640        -0.874143
 H        -5.543455         0.921422        -0.132530
 H        -4.129276         1.483259        -2.795131
 H        -5.877903         1.066098        -2.687956
