19
Iteration:   622charge 0 multiplicity 1
 C         1.302775        -0.116813        -0.522252
 C         0.028877         0.034215         0.137728
 C        -1.172921         0.037352         0.173510
 C        -2.643618         0.038298         0.331465
 O        -3.009508        -0.319432         1.744111
 C        -3.321677         1.312481        -0.130715
 C        -4.730059         1.387866        -0.676873
 C        -4.978651         1.486554        -2.081517
 O        -5.231377         2.611562        -1.351161
 H         1.302065         0.388609        -1.469213
 H         2.185694         0.194269        -0.019485
 H         1.374103        -1.148618        -0.817779
 H        -3.038105        -0.821117        -0.224818
 H        -2.454481        -1.036895         2.014970
 H        -3.377466         1.937742         0.693448
 H        -2.545187         1.708442        -0.734599
 H        -5.404003         0.891801         0.023828
 H        -4.114658         1.600590        -2.759784
 H        -5.888864         1.052755        -2.487808
