19
Iteration:  3102
 C         1.159532        -0.229792        -0.553463
 C        -0.248283         0.040327        -0.206555
 C        -1.431662         0.292291         0.000810
 C        -2.784182         0.168759         0.623880
 O        -2.575054        -0.056295         2.040461
 C        -3.787556         1.292425         0.363156
 C        -4.626220         1.106652        -0.900705
 C        -4.300379         1.598553        -2.268450
 O        -5.320070         2.261148        -1.600239
 H         1.808434         0.642384        -0.249960
 H         1.613930        -1.079666        -0.047827
 H         1.174107        -0.381921        -1.646354
 H        -3.276600        -0.774155         0.199060
 H        -1.733305        -0.605141         2.075636
 H        -4.512031         1.187027         1.323685
 H        -3.241959         2.262427         0.389499
 H        -5.332030         0.275097        -0.896309
 H        -3.498170         2.409754        -2.383285
 H        -4.452219         1.153500        -3.238147
