19
Iteration:  3378
 C         1.450999         0.033961         0.157095
 C         0.001006        -0.083700        -0.063975
 C        -1.228263        -0.115550         0.064188
 C        -2.605902        -0.001234         0.040519
 O        -3.072879        -0.093461         1.394903
 C        -3.125321         1.375347        -0.549582
 C        -4.575391         1.690200        -0.443861
 C        -5.447237         1.101981        -1.488967
 O        -5.129706         2.491836        -1.546843
 H         1.841833        -0.101419         1.180159
 H         1.968510        -0.693785        -0.375679
 H         1.889417         1.034378        -0.014415
 H        -2.880485        -0.838358        -0.633938
 H        -3.145642        -1.062316         1.509904
 H        -2.580462         2.110219        -0.007048
 H        -2.810386         1.514615        -1.597417
 H        -5.008502         1.962402         0.580473
 H        -5.203354         0.382704        -2.298578
 H        -6.463044         0.905022        -1.243685
