19
Iteration:   222
 C         1.535984        -0.122554         0.504474
 C         0.105467        -0.288879         0.093942
 C        -1.035191         0.004382        -0.311534
 C        -2.506312         0.128395        -0.430453
 O        -3.055315        -0.347484         0.794879
 C        -3.077214         1.575715        -0.496289
 C        -4.623244         1.751010        -0.232581
 C        -5.749906         1.177225        -1.045056
 O        -5.248788         2.529324        -1.308041
 H         2.137650        -1.029909         0.443707
 H         1.942308         0.639860        -0.142249
 H         1.641053         0.205882         1.534524
 H        -2.707674        -0.523032        -1.258507
 H        -3.341070        -1.264781         0.543491
 H        -2.495883         2.175953         0.181175
 H        -2.856476         2.096456        -1.362735
 H        -4.884430         1.933828         0.820729
 H        -5.736880         0.539622        -1.850280
 H        -6.620512         1.204078        -0.450481
