19
Iteration:  4450
 C         0.391920        -0.358613        -1.404444
 C        -0.783251        -0.175324        -0.384078
 C        -1.703632         0.069800         0.446808
 C        -2.977477         0.240642         1.154829
 O        -2.618574         0.610087         2.449992
 C        -3.840876         1.396157         0.392977
 C        -3.902412         1.079870        -1.100021
 C        -3.574232         1.976153        -2.160899
 O        -4.977824         1.483655        -1.829916
 H         0.374317         0.535754        -2.037155
 H         1.292356        -0.379655        -0.808841
 H         0.239973        -1.258915        -2.042875
 H        -3.620841        -0.633638         1.342061
 H        -1.753828         0.926095         2.611056
 H        -4.810876         1.419376         0.920948
 H        -3.256964         2.211873         0.621945
 H        -3.541806         0.034752        -1.433206
 H        -3.519839         3.017808        -2.109974
 H        -3.170762         1.462516        -3.040376
