19
Iteration:  4903charge 0 multiplicity 1
 C         0.954514        -0.178296        -1.024066
 C        -0.439670        -0.099985        -0.263686
 C        -1.596392         0.134088         0.182361
 C        -2.926683         0.148134         0.757861
 O        -2.717471         0.192972         2.260557
 C        -3.847386         1.443597         0.439234
 C        -4.717700         1.497953        -0.816008
 C        -4.335849         0.902816        -2.102625
 O        -4.362337         2.344349        -1.903944
 H         1.645264         0.640010        -0.651751
 H         1.435456        -1.183411        -0.824026
 H         0.692407        -0.131044        -2.074609
 H        -3.598843        -0.679480         0.521041
 H        -2.130078        -0.454127         2.567465
 H        -4.562621         1.651543         1.249598
 H        -3.046339         2.264405         0.253980
 H        -5.774887         1.595400        -0.546720
 H        -3.373064         0.495244        -2.108844
 H        -5.068696         0.628958        -2.896179
