19
Iteration:  4061
 C         1.167840        -0.311348        -0.662901
 C        -0.165034        -0.095507        -0.190586
 C        -1.356713         0.143318         0.153949
 C        -2.770804         0.217959         0.635165
 O        -2.925400         0.404068         1.989076
 C        -3.479206         1.532332         0.210449
 C        -4.647685         1.162321        -0.763779
 C        -4.464488         1.076117        -2.191508
 O        -5.181763         2.209491        -1.624839
 H         1.048931        -0.585052        -1.700454
 H         1.694295         0.700071        -0.669161
 H         1.783545        -1.061162        -0.107184
 H        -3.360539        -0.504178         0.062037
 H        -2.285154        -0.067441         2.477428
 H        -3.709181         2.040271         1.175023
 H        -2.734209         2.276848        -0.406072
 H        -5.416697         0.668272        -0.248046
 H        -3.517725         1.253974        -2.803259
 H        -5.193867         0.362774        -2.622473
