19
Iteration:  1485
 C         0.503657        -0.068734        -1.209462
 C        -0.714037         0.079210        -0.419554
 C        -1.884699        -0.022731         0.017525
 C        -2.929652         0.099911         0.962674
 O        -2.398642         0.511337         2.216829
 C        -4.277923         0.825205         0.481306
 C        -4.233138         0.923734        -1.063825
 C        -3.416313         1.735227        -1.836064
 O        -4.757669         2.158347        -1.668181
 H         0.316779        -0.260901        -2.291725
 H         1.097000         0.872105        -1.040932
 H         1.110876        -0.887793        -0.763488
 H        -3.115507        -0.910156         1.241593
 H        -1.668417         1.145562         2.130786
 H        -5.281987         0.391023         0.734476
 H        -4.283650         1.843774         1.020042
 H        -4.601772         0.043090        -1.605390
 H        -2.628979         2.267833        -1.213823
 H        -2.999687         1.516533        -2.904320
