19
Iteration:  1007charge 0 multiplicity 1
 C         1.576410        -0.147563         0.169523
 C         0.112085         0.008695        -0.004277
 C        -1.112060         0.099909         0.034887
 C        -2.585613         0.071704        -0.048534
 O        -3.350009        -0.330972         1.083175
 C        -3.031257         1.375698        -0.678436
 C        -4.522866         1.631362        -0.399486
 C        -5.568509         1.205457        -1.274948
 O        -5.184084         2.534459        -1.320746
 H         1.789000         0.029897         1.202447
 H         1.892127        -1.142185        -0.141019
 H         2.196222         0.519558        -0.409134
 H        -2.675419        -0.833287        -0.651826
 H        -3.002981        -0.000581         1.955271
 H        -2.410077         2.180995        -0.215083
 H        -2.743477         1.239958        -1.767750
 H        -4.983264         1.737841         0.676338
 H        -5.402921         0.707381        -2.251841
 H        -6.535311         0.956825        -0.931138
