19
Iteration:  2186charge 0 multiplicity 1
 C         1.486046        -0.309557         0.533199
 C         0.113447        -0.113757         0.010742
 C        -1.033275         0.187022        -0.247348
 C        -2.542181         0.288094        -0.216973
 O        -3.113689        -0.124095         1.091033
 C        -3.067410         1.641744        -0.782213
 C        -4.506554         1.733273        -0.475900
 C        -5.552485         0.808887        -1.069370
 O        -5.399022         2.302450        -1.387777
 H         1.485322        -0.911359         1.438143
 H         2.115994        -0.850977        -0.125761
 H         1.844427         0.672481         0.807543
 H        -2.923351        -0.580692        -0.856761
 H        -3.222327         0.634881         1.691844
 H        -2.419590         2.514037        -0.389849
 H        -2.984542         1.530356        -1.860057
 H        -4.773682         2.139811         0.524185
 H        -5.272239         0.066506        -1.862157
 H        -6.415843         0.694166        -0.406361
