19
Iteration:   224charge 0 multiplicity 1
 C         1.551368        -0.125662         0.501216
 C         0.105953        -0.301679         0.099417
 C        -1.028033         0.028694        -0.311143
 C        -2.496996         0.142617        -0.438774
 O        -3.060271        -0.354706         0.806403
 C        -3.084200         1.559034        -0.491063
 C        -4.630577         1.731479        -0.256856
 C        -5.764230         1.178679        -1.031770
 O        -5.240030         2.533271        -1.309353
 H         2.153171        -1.039228         0.443762
 H         1.958327         0.660190        -0.153327
 H         1.666012         0.182343         1.535524
 H        -2.739383        -0.466093        -1.296823
 H        -3.444014        -1.203440         0.577806
 H        -2.502297         2.179086         0.181549
 H        -2.800287         2.130056        -1.382764
 H        -4.887169         1.970275         0.877428
 H        -5.748205         0.554335        -1.889872
 H        -6.682477         1.206977        -0.459262
