19
Iteration:   125
 C         1.457759         0.021002         0.387215
 C         0.100889        -0.105420         0.065141
 C        -1.085596        -0.164666        -0.222839
 C        -2.566036         0.042392        -0.404160
 O        -3.341334        -0.375529         0.783607
 C        -2.939571         1.485358        -0.550823
 C        -4.503247         1.682802        -0.214340
 C        -5.569076         1.197042        -1.111203
 O        -5.194973         2.613526        -1.149482
 H         1.886750        -0.962988         0.657727
 H         2.011578         0.410670        -0.471529
 H         1.610431         0.711944         1.223728
 H        -2.963500        -0.471236        -1.303364
 H        -3.096788        -1.307152         0.895953
 H        -2.258104         2.117622         0.076871
 H        -2.793035         1.846422        -1.579043
 H        -4.751925         1.880188         0.880677
 H        -5.257911         0.616808        -1.938734
 H        -6.549375         1.040087        -0.729922
