19
Iteration:  1871
 C         0.978855        -0.247676        -0.645041
 C        -0.351516         0.135298        -0.413543
 C        -1.469781         0.297619        -0.029191
 C        -2.832251         0.259057         0.649486
 O        -2.690776         0.054739         2.083688
 C        -3.750192         1.445920         0.451779
 C        -4.628057         1.042347        -0.824923
 C        -4.136243         1.318089        -2.222413
 O        -5.063136         2.197545        -1.596455
 H         1.679300         0.437656        -0.109688
 H         1.244073        -1.307658        -0.321767
 H         1.022134        -0.206223        -1.781770
 H        -3.364145        -0.666419         0.130064
 H        -1.705730        -0.113377         2.246854
 H        -4.261451         1.577294         1.392166
 H        -3.302253         2.328114         0.137526
 H        -5.416485         0.270720        -0.776411
 H        -3.137564         1.623420        -2.074386
 H        -4.418295         0.614040        -2.960371
