19
Iteration:  2068
 C         1.459676        -0.013279        -0.407514
 C        -0.009289         0.128936        -0.064345
 C        -1.158341        -0.044290         0.285982
 C        -2.648559         0.044305         0.386523
 O        -3.113287        -0.043204         1.775771
 C        -3.228173         1.265275        -0.293164
 C        -4.603143         1.452330        -0.622546
 C        -5.243737         1.091310        -1.877687
 O        -5.092964         2.488258        -1.574640
 H         2.068289        -0.148235         0.534932
 H         1.580120        -0.964040        -0.991820
 H         1.775479         0.944235        -0.895503
 H        -3.118688        -0.775833        -0.163659
 H        -4.036468         0.185899         1.761463
 H        -2.868249         2.151177         0.316398
 H        -2.678301         1.261094        -1.198652
 H        -5.199914         1.339618         0.317103
 H        -4.731991         0.529532        -2.686392
 H        -6.298434         0.859681        -1.826341
