19
Iteration:  3652charge 0 multiplicity 1
 C         1.369716        -0.155178         0.243914
 C        -0.025586         0.045012         0.091290
 C        -1.202014        -0.082641        -0.139503
 C        -2.642282         0.185740         0.026159
 O        -3.168114        -0.130894         1.353222
 C        -2.928556         1.581465        -0.638333
 C        -4.446761         1.825715        -0.481106
 C        -5.541982         1.002233        -1.155741
 O        -5.171235         2.193770        -1.736330
 H         1.615288        -1.226346         0.362923
 H         1.885943         0.129262        -0.659040
 H         1.939622         0.365241         1.051444
 H        -3.258053        -0.536213        -0.541375
 H        -2.435694        -0.593952         1.835191
 H        -2.243533         2.371362        -0.313076
 H        -2.623350         1.575602        -1.711701
 H        -4.532744         2.617297         0.350566
 H        -5.317121         0.087845        -1.689213
 H        -6.593834         0.966427        -0.672288
