19
Iteration:  4675
 C         1.019876        -0.539804        -0.660432
 C        -0.399719        -0.366784        -0.238847
 C        -1.585307         0.016078         0.074804
 C        -2.812664         0.238391         0.770896
 O        -2.536650         0.597049         2.191014
 C        -3.667438         1.387844         0.209420
 C        -4.424508         1.023985        -1.075825
 C        -4.102739         1.929780        -2.224900
 O        -5.402046         2.004999        -1.594251
 H         1.413360         0.490941        -0.806163
 H         1.496848        -1.102484         0.122164
 H         0.972764        -1.065487        -1.601690
 H        -3.333959        -0.704503         0.863609
 H        -1.893594        -0.144947         2.329869
 H        -4.428559         1.592620         0.959424
 H        -3.118406         2.389588         0.071670
 H        -4.831887         0.022233        -1.255916
 H        -3.427433         2.742416        -1.911342
 H        -4.158491         1.472151        -3.304860
