19
Iteration:  3185charge 0 multiplicity 1
 C         1.236373        -0.034857        -0.399830
 C        -0.175745        -0.086755        -0.328921
 C        -1.306719        -0.020257         0.199695
 C        -2.756966         0.039876         0.500145
 O        -2.838718         0.015832         1.888312
 C        -3.380922         1.446978         0.029165
 C        -4.606393         1.129488        -0.853862
 C        -4.606942         1.533672        -2.264797
 O        -5.324391         2.328708        -1.298550
 H         1.697155         0.730325         0.255872
 H         1.656605        -1.122671        -0.109063
 H         1.785652         0.287681        -1.368369
 H        -3.248145        -0.863084         0.109122
 H        -3.596260        -0.488847         2.088336
 H        -3.569590         2.050864         0.897810
 H        -2.637572         2.027157        -0.535807
 H        -5.264909         0.212807        -0.595016
 H        -3.673127         2.091954        -2.585512
 H        -5.367699         1.056744        -2.894986
