19
Iteration:  2962charge 0 multiplicity 1
 C         0.360679         0.439099        -1.363535
 C        -0.708526         0.001195        -0.504436
 C        -1.733689        -0.178106         0.175712
 C        -2.952533        -0.015178         1.018892
 O        -2.770912         0.252818         2.427886
 C        -3.809653         1.064074         0.371541
 C        -4.135102         0.912699        -1.027351
 C        -3.391617         1.790915        -1.957883
 O        -4.756473         1.963453        -1.665976
 H         0.210852         1.564681        -1.585294
 H         1.383213         0.530194        -0.927440
 H         0.581528        -0.059713        -2.357516
 H        -3.627910        -0.913321         1.046236
 H        -3.489614        -0.205597         2.820820
 H        -4.665026         1.200586         0.919389
 H        -3.241848         1.998266         0.386552
 H        -4.464826        -0.062218        -1.457824
 H        -2.738213         2.484515        -1.459290
 H        -3.044485         1.403513        -2.846126
