19
Iteration:  3038charge 0 multiplicity 1
 C         0.874615         0.002227        -0.846105
 C        -0.473969         0.179226        -0.439766
 C        -1.605980         0.155414         0.106973
 C        -2.848170         0.022459         0.778120
 O        -2.678028         0.016802         2.247786
 C        -3.811142         1.128656         0.397108
 C        -4.451702         0.956272        -1.038964
 C        -3.804609         1.685675        -2.180667
 O        -5.093642         2.165909        -1.536499
 H         1.415613         0.977760        -1.089564
 H         1.524107        -0.741995        -0.402788
 H         0.976542        -0.469447        -1.880774
 H        -3.245606        -0.963479         0.574429
 H        -2.887884         0.971503         2.568607
 H        -4.633069         1.349664         0.993303
 H        -3.269288         2.074463         0.324809
 H        -5.064532         0.067252        -1.266807
 H        -3.068955         2.479848        -2.090710
 H        -3.938507         1.354932        -3.147197
