19
Iteration:  4022
 C         1.203343        -0.395383        -0.423513
 C        -0.255820        -0.068890        -0.326901
 C        -1.315090         0.148963         0.193748
 C        -2.693453         0.380949         0.609449
 O        -2.676606         0.268575         2.071907
 C        -3.459260         1.633135         0.049815
 C        -4.697075         1.154279        -0.796288
 C        -4.618273         1.153847        -2.298403
 O        -5.335028         2.196569        -1.581472
 H         1.501208        -0.925010        -1.394488
 H         1.774833         0.524079        -0.417503
 H         1.597000        -1.043346         0.364600
 H        -3.253905        -0.553135         0.367963
 H        -2.701679        -0.704363         2.383500
 H        -3.737152         2.408687         0.735122
 H        -2.779565         2.134124        -0.556406
 H        -5.346401         0.267496        -0.438950
 H        -3.662840         1.443301        -2.763514
 H        -5.174048         0.531564        -2.946439
