19
Iteration:  2478
 C         1.314805         0.171211        -0.208297
 C        -0.038803         0.048195         0.142488
 C        -1.244782        -0.032195         0.075265
 C        -2.667337        -0.069890         0.147772
 O        -3.125751        -0.438557         1.482976
 C        -3.140108         1.382821        -0.370440
 C        -4.592941         1.568904        -0.474246
 C        -5.315427         1.197666        -1.760642
 O        -4.995546         2.582790        -1.438856
 H         1.477591        -0.765079        -0.764226
 H         1.646443         1.063962        -0.735081
 H         1.999652         0.191971         0.635848
 H        -3.110151        -0.852193        -0.595496
 H        -2.428804        -0.211185         2.136461
 H        -2.666935         2.086833         0.397701
 H        -2.500368         1.571063        -1.342966
 H        -5.137170         1.397621         0.481486
 H        -4.751121         0.697718        -2.506040
 H        -6.370703         0.900647        -1.771555
