19
Iteration:  2060charge 0 multiplicity 1
 C         1.446000        -0.002960        -0.470026
 C        -0.008722         0.116290        -0.000304
 C        -1.212722        -0.068386         0.332684
 C        -2.685873         0.010412         0.396688
 O        -3.094013        -0.043125         1.815070
 C        -3.168321         1.289292        -0.319068
 C        -4.685350         1.441358        -0.657834
 C        -5.223128         1.052628        -1.924811
 O        -5.039317         2.506061        -1.521079
 H         2.222885         0.074578         0.383426
 H         1.601276        -0.859990        -1.245266
 H         1.730317         0.964104        -1.084324
 H        -3.204167        -0.849683        -0.056031
 H        -3.941361         0.368889         1.850201
 H        -2.919339         2.104146         0.336462
 H        -2.674520         1.459780        -1.304549
 H        -5.463783         1.468422         0.145778
 H        -4.482982         0.715904        -2.661588
 H        -6.264321         0.677347        -2.075740
