19
Iteration:   644charge 0 multiplicity 1
 C         1.315422        -0.201460        -0.356883
 C        -0.014060         0.194860        -0.048878
 C        -1.244609         0.099409         0.064772
 C        -2.709694        -0.057951         0.184702
 O        -2.991298        -0.215125         1.652637
 C        -3.304487         1.339821        -0.036273
 C        -4.745747         1.379532        -0.614300
 C        -4.966980         1.350872        -2.054159
 O        -5.118016         2.584106        -1.237555
 H         1.735203         0.248156        -1.235514
 H         1.984529         0.105474         0.398405
 H         1.386219        -1.221855        -0.639210
 H        -3.252847        -0.839589        -0.406447
 H        -2.528232        -1.012553         2.056961
 H        -3.256671         1.925418         0.809973
 H        -2.694918         1.851674        -0.761708
 H        -5.585737         0.940703        -0.051377
 H        -4.076014         1.365004        -2.695993
 H        -5.915352         1.077400        -2.506979
