19
Iteration:  4872charge 0 multiplicity 1
 C         0.918034        -0.270284        -0.860552
 C        -0.448989         0.010940        -0.270236
 C        -1.604892         0.088273         0.085149
 C        -2.908383         0.228196         0.700466
 O        -2.826874         0.215273         2.150572
 C        -3.601622         1.513256         0.385649
 C        -4.536865         1.332361        -0.778300
 C        -4.350086         0.960096        -2.105402
 O        -4.569346         2.338925        -1.780008
 H         1.645760         0.580126        -0.618254
 H         1.255675        -1.229575        -0.493008
 H         0.689015        -0.300456        -1.937575
 H        -3.603752        -0.518638         0.144198
 H        -2.178342        -0.556341         2.411689
 H        -4.161385         1.659603         1.260571
 H        -2.961388         2.435726         0.266153
 H        -5.541777         1.177212        -0.363480
 H        -3.378917         0.653528        -2.361264
 H        -5.008531         0.485261        -2.846322
