19
Iteration:   520charge 0 multiplicity 1
 C         1.214136         0.033475        -0.508750
 C        -0.125343         0.045132        -0.027669
 C        -1.307228        -0.190249         0.141930
 C        -2.709422         0.024560         0.296450
 O        -3.060779        -0.150336         1.698403
 C        -3.172068         1.434402        -0.126354
 C        -4.530741         1.369755        -0.577237
 C        -4.825869         1.377455        -2.102929
 O        -5.200399         2.466315        -1.197331
 H         1.250912         0.269018        -1.590930
 H         1.908274         0.752212        -0.022912
 H         1.658148        -0.983501        -0.467161
 H        -3.247584        -0.787877        -0.154840
 H        -3.685923        -0.916988         1.680029
 H        -2.896600         2.044450         0.756413
 H        -2.473616         1.794073        -0.913840
 H        -5.252552         0.930485         0.169188
 H        -4.017207         1.573365        -2.795035
 H        -5.582599         0.731664        -2.538930
