19
Iteration:  1177charge 0 multiplicity 1
 C         1.259345        -0.132184        -0.231406
 C        -0.204958        -0.011424        -0.146376
 C        -1.400792        -0.094537        -0.120655
 C        -2.813809         0.073253         0.355087
 O        -2.657621        -0.254318         1.768701
 C        -3.345991         1.599068         0.059738
 C        -4.787216         1.468148        -0.530644
 C        -4.923877         1.211577        -2.049133
 O        -5.077094         2.559066        -1.612081
 H         1.396891        -1.150002         0.148083
 H         1.748677        -0.170075        -1.184465
 H         1.792781         0.555356         0.406899
 H        -3.294598        -0.728273        -0.126330
 H        -1.746085        -0.049439         1.936085
 H        -3.411542         2.292558         0.888452
 H        -2.652073         1.867615        -0.743067
 H        -5.538029         1.199077         0.196714
 H        -4.009427         0.849985        -2.695985
 H        -5.916761         0.687567        -2.110608
