19
Iteration:  3307
 C         1.409288        -0.009265        -0.313891
 C         0.004071         0.113208        -0.080484
 C        -1.153354        -0.000307         0.371877
 C        -2.676254        -0.038825         0.270312
 O        -3.263472        -0.220409         1.579706
 C        -3.118102         1.236356        -0.354059
 C        -4.619624         1.458320        -0.584644
 C        -5.218939         1.239228        -1.888720
 O        -5.045174         2.552081        -1.381371
 H         2.073613         0.288755         0.557929
 H         1.733086        -1.095082        -0.619504
 H         1.822478         0.772597        -0.992626
 H        -3.013124        -0.855230        -0.395533
 H        -3.689032         0.592383         1.895233
 H        -2.739071         1.973972         0.361959
 H        -2.589978         1.492829        -1.279458
 H        -5.228417         1.160085         0.276572
 H        -4.689745         1.165790        -2.887091
 H        -6.261521         0.803438        -1.862204
