19
Iteration:   162
 C         1.227118        -0.057245         0.453025
 C        -0.092771         0.143068        -0.055754
 C        -1.235556        -0.011400        -0.349147
 C        -2.606203         0.088704        -0.376208
 O        -3.230123        -0.551817         0.858184
 C        -2.847253         1.525718        -0.624789
 C        -4.304812         1.759029        -0.221159
 C        -5.327585         1.048485        -1.047671
 O        -5.197691         2.541381        -1.098596
 H         1.417489        -1.150367         0.501783
 H         2.054393         0.335499        -0.208659
 H         1.329788         0.423133         1.455710
 H        -3.009477        -0.594440        -1.242309
 H        -4.004272        -0.010045         0.996067
 H        -2.054243         2.044599         0.032126
 H        -2.725940         1.618588        -1.807092
 H        -4.625802         2.018927         0.824652
 H        -4.913900         0.518083        -2.040572
 H        -6.372767         0.596028        -0.756874
