19
Iteration:  2436
 C         1.511738         0.216119         0.073533
 C         0.015555         0.062396         0.024131
 C        -1.150382        -0.226164         0.009016
 C        -2.630633        -0.035689         0.015059
 O        -3.305133        -0.430677         1.289130
 C        -3.007324         1.410098        -0.522163
 C        -4.570679         1.647874        -0.422806
 C        -5.570717         1.152332        -1.353356
 O        -4.978767         2.513614        -1.503549
 H         1.961032        -0.758927        -0.294433
 H         1.667623         1.062027        -0.636369
 H         1.964093         0.522123         1.055618
 H        -3.042988        -0.806314        -0.736354
 H        -2.872500         0.090232         2.037690
 H        -2.530807         2.305683        -0.174516
 H        -2.875167         1.410889        -1.603446
 H        -4.975519         1.970756         0.575750
 H        -5.264380         0.478534        -2.121567
 H        -6.654036         1.252955        -1.297726
