19
Iteration:  4250charge 0 multiplicity 1
 C         0.720468        -0.062165        -1.031504
 C        -0.707326         0.023442        -0.441535
 C        -1.790817         0.222701         0.093746
 C        -2.983335         0.240983         0.822757
 O        -2.668269         0.357082         2.321733
 C        -3.710571         1.421126         0.414780
 C        -4.505155         1.145314        -0.751264
 C        -3.895762         0.873198        -2.107494
 O        -4.562275         2.154157        -1.820092
 H         0.686763         0.351766        -2.127833
 H         1.375865         0.601054        -0.438057
 H         1.115345        -1.049234        -0.957653
 H        -3.595090        -0.684118         0.783653
 H        -1.685785         0.187872         2.451370
 H        -4.233765         1.926657         1.245940
 H        -2.895991         2.209993         0.166964
 H        -5.333354         0.475439        -0.620264
 H        -2.892081         0.857858        -2.386023
 H        -4.367537         0.170071        -2.861755
