19
Iteration:  3885
 C         1.191011        -0.342091        -0.340945
 C        -0.140649         0.023491         0.005715
 C        -1.303435        -0.096270         0.232117
 C        -2.696538         0.189131         0.408743
 O        -2.767627         0.305910         1.914008
 C        -3.221732         1.501724        -0.164514
 C        -4.536443         1.148503        -0.886156
 C        -4.899821         1.354896        -2.287530
 O        -5.397726         2.212144        -1.349732
 H         1.080315        -1.149946        -0.980324
 H         1.659690         0.501867        -0.843680
 H         1.728530        -0.599077         0.532028
 H        -3.395089        -0.599575         0.037992
 H        -2.162718         1.003169         2.097549
 H        -3.601655         2.102904         0.697882
 H        -2.331233         1.856251        -0.863947
 H        -5.090693         0.499416        -0.221215
 H        -4.163698         1.584933        -3.072135
 H        -5.783085         0.754667        -2.740041
