19
Iteration:  4486
 C         0.365749        -0.447673        -1.341167
 C        -0.711853        -0.075892        -0.364637
 C        -1.696053        -0.043424         0.330174
 C        -2.795910         0.247389         1.179717
 O        -2.781826         0.780993         2.477272
 C        -3.691186         1.249293         0.342921
 C        -3.865206         1.004046        -1.177313
 C        -3.713417         2.135879        -2.120567
 O        -5.051433         1.475099        -1.811512
 H         0.603689         0.328177        -1.961830
 H         1.329857        -0.699601        -0.845955
 H         0.129567        -1.315064        -1.928107
 H        -3.204535        -0.801910         1.216945
 H        -2.027017         0.463578         2.929125
 H        -4.644608         1.384202         0.792200
 H        -3.166207         2.209623         0.486005
 H        -3.438164        -0.029210        -1.399791
 H        -3.637644         3.139027        -1.691268
 H        -3.314777         1.975555        -3.154426
