19
Iteration:     3
 C         1.510925        -0.058122         0.046525
 C         0.049053        -0.010469        -0.030225
 C        -1.161674        -0.025490        -0.080410
 C        -2.606393        -0.003295        -0.126169
 O        -3.182692        -0.611202         1.024595
 C        -3.129394         1.455262        -0.325220
 C        -4.657422         1.453690        -0.403067
 C        -5.354011         1.511558        -1.686717
 O        -5.197044         2.700421        -0.901682
 H         1.841211        -0.830781         0.747722
 H         1.953652        -0.321031        -0.906453
 H         1.901295         0.920360         0.329861
 H        -3.010831        -0.624147        -0.964895
 H        -2.671207        -0.382111         1.816581
 H        -2.757856         1.963176         0.558207
 H        -2.695645         1.866043        -1.175074
 H        -5.184198         1.064609         0.427487
 H        -4.814940         1.520252        -2.559848
 H        -6.300708         1.105934        -1.715169
