19
Iteration:  4444
 C         0.314260        -0.320465        -1.337508
 C        -0.795453        -0.222146        -0.366123
 C        -1.688183         0.126673         0.360654
 C        -2.955118         0.225907         1.174091
 O        -2.583331         0.577073         2.475974
 C        -3.836882         1.402901         0.375542
 C        -3.901557         1.006376        -1.068227
 C        -3.562403         1.975218        -2.194007
 O        -4.977453         1.509617        -1.847432
 H         0.301623         0.549454        -2.033295
 H         1.306658        -0.369761        -0.803879
 H         0.260970        -1.186324        -1.983720
 H        -3.618367        -0.674074         1.242933
 H        -1.748418         1.014318         2.623774
 H        -4.804615         1.493198         0.869183
 H        -3.306083         2.442034         0.591747
 H        -3.656750         0.011383        -1.405454
 H        -3.438143         3.086718        -2.054008
 H        -3.208930         1.488724        -3.149136
