19
Iteration:  3116
 C         1.130119        -0.212071        -0.492345
 C        -0.251970         0.042874        -0.159560
 C        -1.428647         0.227406         0.068159
 C        -2.726657         0.101814         0.551800
 O        -2.531764        -0.122786         1.977695
 C        -3.754037         1.347248         0.354489
 C        -4.658693         1.172068        -0.942117
 C        -4.307186         1.634495        -2.327710
 O        -5.380723         2.254488        -1.538750
 H         1.787628         0.650982        -0.189133
 H         1.322139        -1.160934         0.043578
 H         1.176646        -0.271388        -1.626175
 H        -3.218912        -0.778295         0.092101
 H        -1.665015         0.334776         2.129576
 H        -4.353958         1.515016         1.248181
 H        -3.153038         2.286938         0.237042
 H        -5.191340         0.217800        -0.857714
 H        -3.337553         1.948411        -2.477649
 H        -4.799179         0.975463        -2.982546
