19
Iteration:  4200charge 0 multiplicity 1
 C         0.760031         0.060656        -1.011990
 C        -0.529923        -0.022145        -0.313787
 C        -1.557553        -0.055963         0.283995
 C        -2.939383         0.197444         0.860144
 O        -2.691078         0.254104         2.260748
 C        -3.543379         1.575983         0.315977
 C        -4.595137         1.346233        -0.771304
 C        -4.136887         0.842846        -2.101044
 O        -4.725441         2.171551        -1.949771
 H         0.589937         0.261267        -2.038519
 H         1.392491         0.871152        -0.596097
 H         1.313463        -0.931059        -0.860956
 H        -3.712160        -0.576973         0.657620
 H        -2.162413        -0.543098         2.571592
 H        -4.190084         2.159478         0.999766
 H        -2.834329         2.265444        -0.137539
 H        -5.650229         1.024945        -0.461105
 H        -3.007839         0.800828        -2.217465
 H        -4.547925         0.115178        -2.762507
