19
Iteration:  1288
 C         1.059533        -0.215841        -0.901179
 C        -0.228354         0.030064        -0.218260
 C        -1.355903         0.008359         0.331040
 C        -2.762558         0.111345         0.649264
 O        -2.996730        -0.015768         2.139544
 C        -3.366061         1.500335         0.160699
 C        -4.494825         1.220043        -0.865472
 C        -4.416770         1.464186        -2.276434
 O        -5.231961         2.347964        -1.442173
 H         1.160563        -1.235024        -1.257326
 H         1.169916         0.550750        -1.672942
 H         1.864415         0.062029        -0.219648
 H        -3.214059        -0.755615        -0.025576
 H        -2.644690        -0.967546         2.212481
 H        -3.949925         2.027355         0.937142
 H        -2.426763         2.091954        -0.116620
 H        -5.043572         0.357390        -0.460560
 H        -3.527413         2.009308        -2.833959
 H        -4.951152         0.723370        -2.985643
