19
Iteration:   228
 C         1.574158        -0.136217         0.488309
 C         0.102401        -0.314758         0.107044
 C        -0.996096         0.076446        -0.301019
 C        -2.475031         0.175292        -0.448092
 O        -3.071404        -0.372553         0.830052
 C        -3.096882         1.533432        -0.489758
 C        -4.633110         1.692986        -0.298312
 C        -5.794150         1.192795        -1.003736
 O        -5.225454         2.537995        -1.303823
 H         2.175382        -1.064740         0.395230
 H         2.007490         0.669232        -0.154080
 H         1.682338         0.165731         1.563731
 H        -2.872495        -0.367876        -1.394163
 H        -3.693753        -1.137606         0.664576
 H        -2.557851         2.167159         0.289770
 H        -2.738792         2.117854        -1.461777
 H        -4.852426         2.028695         0.745489
 H        -5.733525         0.529742        -1.977447
 H        -6.831093         1.193424        -0.502796
