19
Iteration:   697charge 0 multiplicity 1
 C         1.396757        -0.101060        -0.051690
 C        -0.058859        -0.256894        -0.296891
 C        -1.210408         0.068015        -0.094744
 C        -2.647757         0.095095         0.130966
 O        -2.979559        -0.289857         1.472448
 C        -3.200637         1.566619        -0.061927
 C        -4.711842         1.549408        -0.508984
 C        -5.020539         1.257775        -1.859484
 O        -5.317932         2.531836        -1.302236
 H         1.870613         0.686045        -0.674713
 H         1.608122         0.177572         0.989736
 H         1.996686        -1.008000        -0.206194
 H        -3.276710        -0.606130        -0.420506
 H        -2.658911        -1.222513         1.660107
 H        -3.229183         1.936267         0.990052
 H        -2.654698         2.374197        -0.644454
 H        -5.409101         1.275913         0.303210
 H        -4.205710         1.361554        -2.562296
 H        -5.842173         0.600593        -1.989201
