19
Iteration:  2667charge 0 multiplicity 1
 C         1.096081        -0.184708        -0.599820
 C        -0.227831         0.079698        -0.193143
 C        -1.453300         0.188595         0.038508
 C        -2.790686         0.022343         0.490644
 O        -2.611668         0.086137         1.961499
 C        -3.735541         1.177524         0.311897
 C        -4.537676         1.044964        -0.969809
 C        -4.238106         1.943788        -2.184346
 O        -5.367615         2.126041        -1.384431
 H         1.030505        -0.369077        -1.689568
 H         1.796239         0.591925        -0.361022
 H         1.650084        -1.101223        -0.277816
 H        -3.168109        -0.979742         0.279537
 H        -2.670371        -0.816338         2.348063
 H        -4.452216         1.303881         1.219183
 H        -3.071838         2.157438         0.307464
 H        -4.951449         0.017418        -1.157761
 H        -3.411650         2.648157        -2.200733
 H        -4.434391         1.484960        -3.150481
