19
Iteration:  4649
 C         0.938766        -0.584507        -0.690674
 C        -0.459036        -0.227226        -0.336854
 C        -1.577157        -0.094112         0.077639
 C        -2.849869         0.242835         0.831331
 O        -2.512473         0.569444         2.172177
 C        -3.759817         1.466908         0.367063
 C        -4.269618         1.156472        -1.015323
 C        -4.080076         2.000467        -2.278523
 O        -5.370736         1.825669        -1.678405
 H         1.451265         0.350400        -0.806457
 H         1.353650        -1.119514         0.259488
 H         0.914873        -1.270608        -1.580898
 H        -3.400227        -0.720370         0.882675
 H        -1.628579         0.086937         2.271941
 H        -4.674250         1.467654         1.052457
 H        -3.170693         2.363553         0.424175
 H        -4.428514         0.060105        -1.227754
 H        -3.677233         3.021433        -2.191941
 H        -3.925781         1.504292        -3.168274
