19
Iteration:  2449
 C         1.429922         0.224472        -0.053121
 C         0.015499         0.074636         0.164798
 C        -1.183256        -0.144993         0.028376
 C        -2.661344        -0.089888         0.026525
 O        -3.222847        -0.391677         1.289767
 C        -3.184926         1.296610        -0.482932
 C        -4.563021         1.678702        -0.398019
 C        -5.438236         1.181921        -1.467182
 O        -4.963510         2.550597        -1.517460
 H         1.834585        -0.750710        -0.477400
 H         1.858715         0.975833        -0.751301
 H         1.969602         0.330204         0.941849
 H        -3.100817        -0.834678        -0.653634
 H        -2.687900         0.065877         1.920205
 H        -2.622759         1.906257         0.175919
 H        -2.795576         1.448458        -1.418898
 H        -4.977119         1.816623         0.626105
 H        -5.033947         0.469115        -2.228471
 H        -6.436075         0.960480        -1.059835
