19
Iteration:  3476
 C         1.503949        -0.271998         0.595294
 C         0.140530        -0.188185         0.207658
 C        -0.983560         0.123146        -0.237093
 C        -2.531766         0.228904        -0.239055
 O        -3.063151        -0.101093         1.042792
 C        -3.015784         1.564404        -0.841581
 C        -4.484264         1.855193        -0.557174
 C        -5.629556         0.991026        -0.942067
 O        -5.510990         2.252055        -1.480925
 H         1.761151        -0.991194         1.491978
 H         2.147496        -0.693816        -0.171705
 H         1.978361         0.731633         0.908084
 H        -2.882721        -0.576812        -0.940364
 H        -4.006203        -0.095748         0.822795
 H        -2.485301         2.325386        -0.374785
 H        -2.808148         1.511897        -1.903079
 H        -4.638827         2.465243         0.371967
 H        -5.454146         0.026141        -1.552418
 H        -6.417358         0.845492        -0.233911
