19
Iteration:   501charge 0 multiplicity 1
 C         1.342156         0.050984        -0.472397
 C        -0.063593        -0.127272        -0.067669
 C        -1.254996        -0.046747         0.182533
 C        -2.748528        -0.036141         0.336112
 O        -2.960036        -0.273308         1.729927
 C        -3.183244         1.448273        -0.057434
 C        -4.576747         1.415159        -0.653873
 C        -5.019170         1.345332        -2.081528
 O        -5.199049         2.594434        -1.319739
 H         1.446832         0.227576        -1.539755
 H         1.750309         0.865236         0.106346
 H         1.880231        -0.891105        -0.424435
 H        -3.301927        -0.780497        -0.360385
 H        -3.860985        -0.589578         1.901901
 H        -3.192264         2.056577         0.808246
 H        -2.505637         2.026266        -0.707513
 H        -5.336792         0.724637        -0.036486
 H        -4.266318         1.301100        -2.916688
 H        -6.005707         0.920511        -2.342698
