19
Iteration:  4135
 C         0.905315        -0.030984        -0.930398
 C        -0.383712         0.000632        -0.364540
 C        -1.382227        -0.044536         0.395071
 C        -2.751424         0.196438         0.836680
 O        -2.909889         0.333881         2.233001
 C        -3.492741         1.462674         0.199228
 C        -4.574995         1.250482        -0.813847
 C        -4.467316         0.945610        -2.200905
 O        -4.830207         2.238006        -1.824042
 H         0.858728        -0.128916        -2.012513
 H         1.507275         0.869864        -0.598855
 H         1.430577        -0.991694        -0.520904
 H        -3.251889        -0.747251         0.418386
 H        -2.416423        -0.378424         2.726986
 H        -3.761900         2.128624         1.024159
 H        -2.692801         2.023452        -0.184693
 H        -5.431353         1.003242        -0.208695
 H        -3.455347         0.996379        -2.630513
 H        -5.168119         0.313708        -2.737256
