19
Iteration:  4035charge 0 multiplicity 1
 C         1.217129        -0.351654        -0.523281
 C        -0.179818        -0.130576        -0.325638
 C        -1.290047         0.161697         0.110506
 C        -2.695417         0.332463         0.632562
 O        -2.814021         0.305232         2.200953
 C        -3.479596         1.580369        -0.006501
 C        -4.720785         1.177771        -0.781634
 C        -4.508325         1.176250        -2.240022
 O        -5.314121         2.172853        -1.616198
 H         1.411459        -0.825824        -1.539303
 H         1.782669         0.582793        -0.429060
 H         1.535226        -1.066294         0.363064
 H        -3.293660        -0.461631         0.109254
 H        -2.525492        -0.572472         2.331152
 H        -3.727026         2.103969         0.926276
 H        -2.954537         2.148014        -0.643719
 H        -5.536523         0.754520        -0.152610
 H        -3.631491         1.525908        -2.684041
 H        -5.124024         0.410851        -2.753237
