19
Iteration:  3039charge 0 multiplicity 1
 C         0.880933        -0.002260        -0.836280
 C        -0.468314         0.176765        -0.445754
 C        -1.597553         0.164852         0.106532
 C        -2.846310         0.024193         0.769784
 O        -2.677847         0.020290         2.238775
 C        -3.812843         1.129978         0.391814
 C        -4.456582         0.962342        -1.036285
 C        -3.808720         1.674295        -2.174036
 O        -5.098294         2.167763        -1.530339
 H         1.413337         0.975606        -1.075928
 H         1.503186        -0.772889        -0.360561
 H         0.969775        -0.470117        -1.890587
 H        -3.271200        -0.961705         0.557319
 H        -2.948142         0.948287         2.561463
 H        -4.593890         1.348558         0.989968
 H        -3.253728         2.072647         0.328389
 H        -5.032862         0.047913        -1.272372
 H        -3.091158         2.455114        -2.055591
 H        -3.953767         1.369492        -3.142541
