19
Iteration:   141
 C         1.432041        -0.020558         0.437900
 C        -0.040325         0.097232        -0.010462
 C        -1.207183        -0.195052        -0.277294
 C        -2.634627        -0.004424        -0.409076
 O        -3.253853        -0.369358         0.808146
 C        -3.018183         1.549966        -0.589762
 C        -4.369086         1.728889        -0.189649
 C        -5.398286         1.157445        -1.085024
 O        -5.137279         2.522809        -1.113035
 H         1.682627        -1.079747         0.601588
 H         2.197591         0.330220        -0.294685
 H         1.579639         0.570951         1.364169
 H        -2.917065        -0.694705        -1.264291
 H        -3.896017        -1.095205         0.549414
 H        -2.558063         2.234537         0.157659
 H        -2.931271         1.859855        -1.673863
 H        -4.567563         1.863868         0.853903
 H        -5.108992         0.594966        -2.072780
 H        -6.388929         0.792814        -0.614556
