19
Iteration:  1272
 C         1.043256        -0.183793        -0.760136
 C        -0.186453         0.052032        -0.131844
 C        -1.393952         0.041753         0.164795
 C        -2.734575         0.059010         0.644706
 O        -2.892974        -0.014358         2.027565
 C        -3.330379         1.425679         0.142295
 C        -4.572465         1.258219        -0.772053
 C        -4.467389         1.456254        -2.268230
 O        -5.223224         2.366072        -1.482589
 H         0.991034        -1.260702        -1.011277
 H         1.140571         0.314927        -1.744784
 H         1.946258         0.041981        -0.157484
 H        -3.458446        -0.675247         0.208607
 H        -2.856222        -0.965312         2.338091
 H        -3.483174         1.924854         1.104768
 H        -2.737512         1.975935        -0.541273
 H        -5.403439         0.616344        -0.464356
 H        -3.484464         1.750388        -2.449259
 H        -5.085179         0.942247        -2.953428
