19
Iteration:  4230charge 0 multiplicity 1
 C         0.701681        -0.008236        -0.981635
 C        -0.610691         0.039289        -0.419136
 C        -1.689960         0.037201         0.054256
 C        -2.917168         0.239848         0.889512
 O        -2.683692         0.260263         2.349242
 C        -3.633286         1.594064         0.513419
 C        -4.420268         1.246989        -0.801996
 C        -4.051796         0.840829        -2.186010
 O        -4.652445         2.113021        -1.932662
 H         0.564926         0.292496        -2.022331
 H         1.274541         0.691564        -0.481402
 H         1.128585        -0.963649        -0.923549
 H        -3.619016        -0.594170         0.759851
 H        -1.896006        -0.138477         2.632242
 H        -4.421621         2.074538         1.102336
 H        -3.111161         2.493807         0.310629
 H        -5.427040         0.835444        -0.428971
 H        -3.006095         0.913822        -2.356067
 H        -4.627684         0.137701        -2.807505
