19
Iteration:  3631
 C         1.441722        -0.207182         0.333740
 C         0.032939        -0.027828        -0.003679
 C        -1.190443         0.004591        -0.016506
 C        -2.629155         0.112405        -0.148946
 O        -3.185556        -0.032217         1.155811
 C        -3.039710         1.535718        -0.606258
 C        -4.513242         1.833019        -0.522849
 C        -5.556337         0.980990        -0.961339
 O        -5.122105         2.200895        -1.718933
 H         1.654931        -1.238372         0.685900
 H         2.173896         0.049324        -0.466116
 H         1.708472         0.464306         1.219633
 H        -3.024981        -0.671111        -0.811544
 H        -2.424541         0.045766         1.784331
 H        -2.476613         2.254478        -0.113923
 H        -2.571892         1.754746        -1.563467
 H        -4.720951         2.325662         0.502325
 H        -5.411780         0.073398        -1.514782
 H        -6.534959         1.052184        -0.370583
