19
Iteration:   629charge 0 multiplicity 1
 C         1.324175        -0.143440        -0.498074
 C        -0.012695         0.106231         0.110949
 C        -1.247937         0.062474         0.120497
 C        -2.622434        -0.055185         0.345407
 O        -2.988668        -0.265523         1.670027
 C        -3.340302         1.327715        -0.101912
 C        -4.738572         1.382591        -0.636287
 C        -4.970673         1.471688        -2.098709
 O        -5.200502         2.613216        -1.335649
 H         1.298614         0.484263        -1.438150
 H         2.256286        -0.015102         0.163533
 H         1.361390        -1.282380        -0.550130
 H        -2.894757        -0.989006        -0.260320
 H        -2.472737        -1.035595         1.996881
 H        -3.185504         1.867500         0.976430
 H        -2.583796         1.819140        -0.859755
 H        -5.473563         0.875374         0.169962
 H        -4.121249         1.589093        -2.785214
 H        -5.856344         0.904527        -2.390149
