19
Iteration:   107
 C         1.590252         0.044098         0.329991
 C         0.101921        -0.326439         0.113793
 C        -1.087226        -0.055495        -0.128683
 C        -2.510799         0.035242        -0.310520
 O        -3.291667        -0.550332         0.746558
 C        -3.060792         1.522851        -0.547819
 C        -4.508380         1.730747        -0.369645
 C        -5.673509         1.278537        -1.138956
 O        -5.238485         2.658268        -1.139682
 H         2.240917        -0.752261         0.732301
 H         1.979808         0.453496        -0.636304
 H         1.654929         0.845009         1.094368
 H        -2.840472        -0.576434        -1.200107
 H        -2.752488        -0.661137         1.531684
 H        -2.415094         2.051235         0.200182
 H        -2.562212         1.962781        -1.493135
 H        -4.819096         1.933095         0.693981
 H        -5.562444         0.791475        -2.191653
 H        -6.663242         1.053199        -0.576553
