19
Iteration:  1970
 C         1.088490         0.162140        -0.791065
 C        -0.308161         0.056647        -0.268281
 C        -1.375794        -0.180131         0.374253
 C        -2.755826        -0.027483         0.600499
 O        -3.134982         0.181997         2.143406
 C        -3.192921         1.326568        -0.072563
 C        -4.546507         1.221791        -0.773663
 C        -4.562286         1.231468        -2.259175
 O        -5.048760         2.325487        -1.434951
 H         1.718857         0.687287        -0.019786
 H         1.402802        -0.902812        -1.123448
 H         1.078457         0.888411        -1.686344
 H        -3.162928        -0.881828         0.079774
 H        -2.307294        -0.011565         2.628044
 H        -3.320868         2.020740         0.758958
 H        -2.401836         1.618128        -0.677092
 H        -5.332720         0.676822        -0.193918
 H        -3.598037         1.250387        -2.813706
 H        -5.303175         0.638411        -2.721088
