19
Iteration:  2124charge 0 multiplicity 1
 C         1.517179        -0.177211         0.074428
 C         0.053659        -0.034411         0.091900
 C        -1.106613         0.076597        -0.046156
 C        -2.577186         0.143311         0.031222
 O        -3.092680         0.005971         1.436506
 C        -3.121560         1.479096        -0.474644
 C        -4.638670         1.627143        -0.400045
 C        -5.513993         0.949421        -1.532630
 O        -5.230724         2.375463        -1.577576
 H         1.914691        -0.561300         1.051623
 H         2.004787        -0.793461        -0.731876
 H         1.899168         0.840753        -0.225658
 H        -3.055201        -0.605924        -0.606178
 H        -2.905326        -0.944179         1.595952
 H        -2.549791         2.341530        -0.091619
 H        -2.915504         1.526916        -1.540884
 H        -5.048624         1.932872         0.597787
 H        -4.923014         0.229007        -2.088209
 H        -6.598601         0.766157        -1.375188
