19
Iteration:  3949charge 0 multiplicity 1
 C         1.292276        -0.414305        -0.247767
 C        -0.116264        -0.226923        -0.235877
 C        -1.174423         0.139397         0.185366
 C        -2.704925         0.296042         0.454103
 O        -2.659213         0.369134         1.915722
 C        -3.539415         1.406966        -0.068453
 C        -4.763051         1.178247        -0.842766
 C        -4.675293         1.292536        -2.276623
 O        -5.518504         2.268101        -1.411119
 H         1.630903        -1.143390        -1.000544
 H         1.777843         0.530743        -0.438613
 H         1.579128        -0.809663         0.807457
 H        -3.168649        -0.667165         0.322959
 H        -1.732694         0.326660         2.309036
 H        -3.579549         2.237440         0.748899
 H        -2.967696         2.098063        -0.836836
 H        -5.462499         0.447213        -0.521757
 H        -3.760863         1.541173        -2.752757
 H        -5.303595         0.781805        -3.053121
