19
Iteration:  4357charge 0 multiplicity 1
 C         0.517713        -0.293815        -1.282823
 C        -0.679241         0.030861        -0.482597
 C        -1.666915         0.052762         0.242518
 C        -2.964150         0.201651         1.049754
 O        -2.655653         0.707355         2.494033
 C        -3.867483         1.164178         0.421075
 C        -4.380642         0.828136        -1.082105
 C        -3.525555         1.460157        -2.173142
 O        -4.796514         2.063978        -1.712309
 H         0.508225         0.393002        -2.194385
 H         1.427486         0.027972        -0.664871
 H         0.568139        -1.351000        -1.582326
 H        -3.380685        -0.750135         1.364035
 H        -1.810489         1.294801         2.481824
 H        -4.777198         1.249646         0.983819
 H        -3.319524         2.127496         0.223056
 H        -5.000340        -0.021951        -1.050015
 H        -2.624498         1.949773        -1.856762
 H        -3.547849         1.011916        -3.237960
