19
Iteration:  3996
 C         1.164113        -0.440818        -0.310352
 C        -0.225942        -0.011131        -0.113209
 C        -1.381278         0.200115        -0.039361
 C        -2.691758         0.267017         0.478018
 O        -2.640681         0.347905         2.023643
 C        -3.406463         1.547720         0.049208
 C        -4.589433         1.168528        -0.852763
 C        -4.713556         1.192292        -2.308730
 O        -5.346379         2.185969        -1.480513
 H         1.245035        -0.972147        -1.222307
 H         1.834462         0.430550        -0.513893
 H         1.721052        -1.074036         0.322040
 H        -3.267041        -0.633869         0.349314
 H        -2.536354        -0.577726         2.443125
 H        -3.843217         2.097397         0.921180
 H        -2.660985         2.499688        -0.238891
 H        -5.180147         0.303642        -0.414776
 H        -4.035961         1.553703        -3.127740
 H        -5.345932         0.356343        -2.768287
