19
Iteration:   615
 C         1.306296        -0.108130        -0.558434
 C         0.069799        -0.021773         0.135070
 C        -1.164856         0.028822         0.239533
 C        -2.674625         0.047438         0.353172
 O        -3.030994        -0.341921         1.788026
 C        -3.286611         1.355436        -0.133349
 C        -4.709742         1.366224        -0.698095
 C        -4.999889         1.452737        -2.142925
 O        -5.243637         2.637650        -1.304960
 H         1.260793         0.454940        -1.527440
 H         2.155556         0.362501        -0.025331
 H         1.531506        -1.122811        -0.966930
 H        -3.111670        -0.683841        -0.350159
 H        -2.404188        -1.036767         1.975530
 H        -3.360097         2.128417         0.694728
 H        -2.631438         1.840216        -0.878229
 H        -5.521531         0.948895        -0.185037
 H        -4.127937         1.467704        -2.803124
 H        -5.879350         1.056612        -2.712252
