19
Iteration:  3501charge 0 multiplicity 1
 C         1.480933        -0.378987         0.583876
 C         0.147404        -0.032067         0.108426
 C        -1.013109         0.149782         0.008450
 C        -2.470705         0.219759        -0.378564
 O        -3.153176         0.052774         0.928489
 C        -2.996290         1.549760        -0.895613
 C        -4.508408         1.761589        -0.491472
 C        -5.636667         0.952489        -0.797652
 O        -5.430671         2.213927        -1.513171
 H         1.431138        -1.113461         1.360891
 H         2.355758        -0.777653         0.003269
 H         1.963165         0.490140         1.093987
 H        -2.719231        -0.652768        -1.046103
 H        -3.740736        -0.716854         0.653133
 H        -2.470651         2.269450        -0.177404
 H        -2.904258         1.669190        -1.993448
 H        -4.591341         2.435984         0.401398
 H        -5.562763         0.001885        -1.330598
 H        -6.455719         1.060398        -0.025258
