19
Iteration:  4155charge 0 multiplicity 1
 C         0.938443         0.012986        -1.003407
 C        -0.423188        -0.049951        -0.312669
 C        -1.471794        -0.048069         0.275443
 C        -2.877606         0.215396         0.742002
 O        -2.962907         0.413768         2.201948
 C        -3.439062         1.530968         0.260769
 C        -4.606331         1.166463        -0.762422
 C        -4.350187         0.857492        -2.186221
 O        -4.667087         2.221989        -1.700619
 H         0.736170         0.102617        -2.058968
 H         1.398930         0.913546        -0.660565
 H         1.580511        -0.859796        -0.754141
 H        -3.371966        -0.753077         0.582461
 H        -2.433296        -0.368051         2.620481
 H        -3.946693         2.049303         1.133570
 H        -2.867157         2.261028        -0.186531
 H        -5.618543         0.768018        -0.233043
 H        -3.404578         0.622286        -2.594435
 H        -5.217761         0.471693        -2.754468
