19
Iteration:  1559
 C         0.248845        -0.036683        -1.664081
 C        -0.670641        -0.053564        -0.554099
 C        -1.559258         0.007092         0.352596
 C        -2.863218         0.026503         1.133049
 O        -2.930396         0.556928         2.485932
 C        -3.964327         0.916090         0.492939
 C        -4.087657         0.818799        -1.150484
 C        -3.239934         1.882068        -1.840253
 O        -4.760400         2.025046        -1.697279
 H        -0.301726         0.360576        -2.610857
 H         0.997404         0.800077        -1.392615
 H         0.718232        -1.038969        -1.863304
 H        -3.318230        -1.000830         1.241633
 H        -2.829447         1.498477         2.323380
 H        -4.922928         0.732159         0.885520
 H        -3.879237         1.985679         0.820621
 H        -4.205103        -0.168480        -1.610662
 H        -2.580790         2.637819        -1.421219
 H        -2.971973         1.744051        -2.933437
