19
Iteration:  1619charge 0 multiplicity 1
 C        -0.010699        -0.041491        -1.619640
 C        -0.806648         0.178102        -0.490646
 C        -1.676049         0.106145         0.388691
 C        -2.947615         0.138285         1.156893
 O        -2.769091         0.150576         2.671688
 C        -3.895416         1.210465         0.530450
 C        -3.804883         0.989106        -1.077327
 C        -3.296848         1.913356        -2.064070
 O        -4.753631         1.764448        -1.928356
 H        -0.127341         0.494819        -2.532867
 H         0.957269         0.261000        -1.213227
 H         0.226935        -1.084488        -1.854604
 H        -3.264419        -0.848195         0.955945
 H        -1.933794         0.602484         2.739739
 H        -4.952454         1.027686         0.938611
 H        -3.478353         2.172678         0.761269
 H        -3.804689        -0.062883        -1.418406
 H        -3.088958         2.999948        -1.918294
 H        -2.897626         1.448637        -2.951356
