19
Iteration:  1162charge 0 multiplicity 1
 C         1.243434        -0.185990        -0.176101
 C        -0.210786         0.102843        -0.056442
 C        -1.405871        -0.076056        -0.197119
 C        -2.774962         0.102559         0.317372
 O        -2.722276        -0.277950         1.695351
 C        -3.296648         1.511519        -0.065940
 C        -4.702594         1.571744        -0.534038
 C        -4.976334         1.091445        -1.940883
 O        -5.045037         2.529993        -1.528794
 H         1.610835        -1.141608         0.147347
 H         1.451139        -0.172321        -1.250423
 H         1.856786         0.605220         0.242639
 H        -3.654818        -0.549688        -0.052099
 H        -1.932279         0.177437         2.040683
 H        -3.218888         2.185560         0.870168
 H        -2.786368         2.062127        -0.869076
 H        -5.557065         1.389511         0.170002
 H        -4.104150         0.942290        -2.524627
 H        -5.892514         0.642840        -2.338577
