19
Iteration:  1103
 C         1.478647        -0.121980        -0.217648
 C         0.047638        -0.162326        -0.157088
 C        -1.098323        -0.058712         0.168442
 C        -2.566045         0.138183         0.234959
 O        -3.288297        -0.237376         1.444086
 C        -3.098021         1.568322        -0.214351
 C        -4.694586         1.643012        -0.409688
 C        -5.266791         1.101808        -1.751949
 O        -5.180515         2.484917        -1.505881
 H         1.850835        -0.803504         0.661573
 H         1.877113        -0.477090        -1.254290
 H         1.946133         0.914798        -0.041794
 H        -3.034939        -0.585787        -0.576086
 H        -2.802706         0.052615         2.282697
 H        -2.973317         2.449685         0.473479
 H        -2.914075         2.070671        -1.233375
 H        -5.277462         1.371423         0.472033
 H        -4.526389         0.628360        -2.466858
 H        -6.275013         0.707927        -1.900892
