19
Iteration:  4696charge 0 multiplicity 1
 C         0.995671        -0.507852        -0.660450
 C        -0.423168        -0.337881        -0.172558
 C        -1.494551         0.016567         0.120004
 C        -2.760749         0.225258         0.742056
 O        -2.604077         0.598589         2.107844
 C        -3.725235         1.310320         0.180308
 C        -4.406606         1.010174        -1.101922
 C        -4.154129         1.810403        -2.386240
 O        -5.319927         2.159427        -1.394173
 H         1.418701         0.516056        -0.739733
 H         1.541453        -1.124340         0.106142
 H         0.918844        -1.021825        -1.621907
 H        -3.302873        -0.736207         0.679658
 H        -2.001527        -0.021740         2.672297
 H        -4.367989         1.393364         1.010534
 H        -3.153025         2.285113         0.046291
 H        -4.719769        -0.042540        -1.227231
 H        -3.318240         2.526758        -2.357405
 H        -4.602623         1.378524        -3.361822
