19
Iteration:  2174charge 0 multiplicity 1
 C         1.462778        -0.244566         0.441323
 C         0.103332        -0.142120         0.043324
 C        -1.117220         0.075204        -0.123310
 C        -2.509499         0.267203        -0.148301
 O        -3.035778        -0.096222         1.089792
 C        -2.997606         1.642636        -0.739172
 C        -4.538079         1.744750        -0.445652
 C        -5.643179         0.885635        -1.160938
 O        -5.404649         2.246634        -1.436399
 H         1.472497        -0.849366         1.363899
 H         2.041701        -0.756693        -0.325334
 H         2.051883         0.673653         0.557645
 H        -2.957106        -0.488143        -0.872401
 H        -2.950849         0.624379         1.719595
 H        -2.557064         2.504078        -0.141687
 H        -2.679381         1.876723        -1.768537
 H        -4.678060         2.126219         0.571719
 H        -5.287921         0.244772        -2.026296
 H        -6.535695         0.480126        -0.698361
