19
Iteration:  2328
 C         1.427515        -0.135607         0.650874
 C         0.077464         0.036598         0.108551
 C        -1.116232         0.147774        -0.213294
 C        -2.564068         0.035349        -0.426955
 O        -3.219565        -0.143823         0.882632
 C        -2.925596         1.395298        -0.962626
 C        -4.360599         1.776760        -0.441348
 C        -5.564515         1.055626        -0.736543
 O        -5.443144         2.298712        -1.391729
 H         1.779767        -1.128717         1.109247
 H         2.274010         0.039187        -0.015715
 H         1.486396         0.564151         1.529543
 H        -2.746583        -0.781189        -1.057308
 H        -2.362912        -0.335305         1.338809
 H        -2.224580         2.097662        -0.577191
 H        -3.011147         1.495292        -2.004451
 H        -4.611604         2.244539         0.533079
 H        -5.484838         0.223165        -1.437917
 H        -6.193529         0.956192         0.214157
