19
Iteration:  4228charge 0 multiplicity 1
 C         0.701425        -0.011576        -0.978928
 C        -0.600981         0.046417        -0.419400
 C        -1.691280         0.004244         0.082638
 C        -2.900184         0.255052         0.866654
 O        -2.680386         0.252150         2.354175
 C        -3.645277         1.602992         0.511923
 C        -4.426736         1.256083        -0.785636
 C        -4.064691         0.840687        -2.183963
 O        -4.660884         2.119900        -1.947000
 H         0.540023         0.331083        -2.064354
 H         1.300426         0.745219        -0.468327
 H         1.155988        -0.966068        -0.906405
 H        -3.629028        -0.562337         0.744661
 H        -1.890290        -0.195672         2.659129
 H        -4.416196         2.047446         1.123461
 H        -3.052994         2.539333         0.286113
 H        -5.368328         0.823043        -0.467272
 H        -3.034924         0.847239        -2.403458
 H        -4.589464         0.106713        -2.865480
