19
Iteration:  2450
 C         1.428291         0.218467        -0.063711
 C         0.005088         0.074192         0.171829
 C        -1.177393        -0.134076         0.032521
 C        -2.671035        -0.095084         0.020197
 O        -3.214927        -0.388023         1.289572
 C        -3.186584         1.287205        -0.477123
 C        -4.564694         1.678312        -0.396990
 C        -5.429060         1.186710        -1.474904
 O        -4.965580         2.550660        -1.514424
 H         1.814605        -0.743571        -0.479973
 H         1.853216         0.993179        -0.729201
 H         1.966240         0.344509         0.921448
 H        -3.090968        -0.839040        -0.619648
 H        -2.681470         0.057986         1.938377
 H        -2.615007         1.890177         0.192312
 H        -2.768949         1.445829        -1.399563
 H        -4.995541         1.844856         0.603139
 H        -5.024328         0.460749        -2.249974
 H        -6.422493         0.942126        -1.068506
