19
Iteration:  1798charge 0 multiplicity 1
 C         0.921285        -0.189680        -0.787378
 C        -0.572538        -0.030191        -0.529230
 C        -1.643478         0.112271         0.009966
 C        -2.904177         0.137976         0.770795
 O        -2.383773         0.242590         2.257083
 C        -4.031437         1.167922         0.512422
 C        -4.571571         1.067419        -0.999301
 C        -3.746520         1.471375        -2.157852
 O        -5.071273         2.265068        -1.680363
 H         1.382174         0.772289        -0.637116
 H         1.494729        -0.846480        -0.150735
 H         0.971986        -0.461676        -1.810347
 H        -3.131964        -0.865633         0.685073
 H        -2.206473         1.204792         2.399091
 H        -4.831644         0.906805         1.309639
 H        -3.643889         2.244689         0.735155
 H        -5.231173         0.148434        -1.014828
 H        -2.867072         2.235069        -2.079948
 H        -4.060270         1.285310        -3.225734
