19
Iteration:   426charge 0 multiplicity 1
 C         1.347793        -0.117762        -0.171650
 C        -0.104657         0.238810         0.025988
 C        -1.299503         0.017078        -0.162877
 C        -2.699470        -0.060991         0.186999
 O        -2.887446        -0.333082         1.531969
 C        -3.190269         1.435722        -0.160475
 C        -4.638770         1.479832        -0.470074
 C        -5.226994         1.241492        -1.838396
 O        -5.010155         2.555628        -1.371571
 H         1.482825        -0.308735        -1.262916
 H         2.132357         0.550684         0.200530
 H         1.459366        -1.140431         0.293462
 H        -3.280006        -0.711433        -0.531551
 H        -3.849434        -0.316505         1.759599
 H        -3.043339         2.244086         0.605906
 H        -2.593393         1.771190        -1.091172
 H        -5.341699         1.443505         0.362660
 H        -4.541588         0.854744        -2.663523
 H        -6.300828         0.838796        -1.885920
