19
Iteration:  1735
 C         0.593201         0.022294        -1.211275
 C        -0.640464         0.009864        -0.338034
 C        -1.635804        -0.216594         0.352823
 C        -2.839049         0.000795         1.009077
 O        -2.698352         0.508828         2.306297
 C        -3.851218         1.050222         0.345258
 C        -4.220288         0.895980        -1.149197
 C        -3.695350         1.770676        -2.142551
 O        -4.954708         2.188288        -1.604759
 H         0.715151         1.011954        -1.733541
 H         1.520313        -0.497325        -0.907359
 H         0.395919        -0.618665        -2.101735
 H        -3.476254        -0.966686         1.081000
 H        -1.965917         0.076654         2.740587
 H        -4.815854         1.068762         0.843357
 H        -3.118204         1.931134         0.366982
 H        -4.770061        -0.023082        -1.372507
 H        -2.858657         2.542439        -2.009370
 H        -3.698654         1.520191        -3.234674
