19
Iteration:  4589
 C         0.608688        -0.603763        -0.902406
 C        -0.553116        -0.190937        -0.346292
 C        -1.590551         0.075250         0.207209
 C        -2.802456         0.335241         0.961864
 O        -2.604514         0.627112         2.288556
 C        -3.723072         1.359140         0.271708
 C        -4.011886         1.004836        -1.171229
 C        -3.962876         2.140902        -2.123951
 O        -5.299776         1.620726        -1.720114
 H         1.186434         0.255097        -1.358533
 H         1.250457        -1.042124        -0.194627
 H         0.540483        -1.289699        -1.735128
 H        -3.343224        -0.663097         0.935261
 H        -1.723063         0.160705         2.553746
 H        -4.630751         1.311123         0.947031
 H        -3.299000         2.387204         0.513367
 H        -3.805440        -0.031059        -1.343501
 H        -3.637566         3.112431        -1.680348
 H        -3.645846         1.976475        -3.218896
