19
Iteration:  1383charge 0 multiplicity 1
 C         0.715461        -0.136844        -1.019371
 C        -0.465953         0.103298        -0.294653
 C        -1.557963        -0.073036         0.182664
 C        -2.896248         0.048091         0.924967
 O        -2.647164         0.096553         2.319470
 C        -3.685925         1.232331         0.389221
 C        -4.293718         1.138092        -1.052310
 C        -3.936131         1.759985        -2.369826
 O        -5.151011         2.157343        -1.576379
 H         0.506641        -0.929724        -1.818736
 H         1.162169         0.852205        -1.367982
 H         1.528387        -0.451571        -0.308916
 H        -3.452522        -0.871920         0.776230
 H        -1.817079         0.581422         2.508103
 H        -4.501417         1.454236         1.085299
 H        -2.998898         2.100739         0.283499
 H        -4.858698         0.218533        -1.250472
 H        -3.058560         2.430444        -2.383014
 H        -4.286604         1.277482        -3.254773
