19
Iteration:  4079
 C         1.053184        -0.229837        -0.781250
 C        -0.225493        -0.032366        -0.074875
 C        -1.404267         0.045030         0.274097
 C        -2.774634         0.332850         0.567538
 O        -2.857881         0.312885         2.067259
 C        -3.453794         1.591973         0.085610
 C        -4.635394         1.193621        -0.778799
 C        -4.502596         0.998039        -2.215959
 O        -5.029762         2.208189        -1.610504
 H         0.807014        -0.480836        -1.839622
 H         1.660648         0.686231        -0.737012
 H         1.533317        -1.063837        -0.127650
 H        -3.284289        -0.668914         0.308207
 H        -2.218788        -0.198392         2.485222
 H        -3.960300         1.895155         0.999354
 H        -2.864593         2.245759        -0.385664
 H        -5.363482         0.483559        -0.270117
 H        -3.540011         1.171671        -2.557183
 H        -5.240821         0.407211        -2.822756
