19
Iteration:  4326
 C         0.474812        -0.214732        -1.159082
 C        -0.646061        -0.081967        -0.368241
 C        -1.635509         0.202671         0.234379
 C        -2.883948         0.234139         0.946307
 O        -2.568424         0.629075         2.395745
 C        -3.972891         1.124905         0.423543
 C        -4.454047         0.911445        -0.998240
 C        -3.639379         1.237188        -2.244707
 O        -4.657975         2.205319        -1.727606
 H         0.174284         0.481037        -2.069310
 H         1.277140         0.244418        -0.530969
 H         0.657887        -1.244234        -1.481017
 H        -3.278484        -0.799062         1.021846
 H        -1.694529         0.939670         2.268373
 H        -4.837440         1.047666         1.094521
 H        -3.736460         2.168008         0.689624
 H        -5.260938         0.218012        -1.090011
 H        -2.623931         1.553994        -2.162784
 H        -3.944973         0.681834        -3.154390
