19
Iteration:   414
 C         1.313880        -0.158070        -0.115069
 C        -0.100200         0.240471        -0.008829
 C        -1.299926        -0.037326        -0.101017
 C        -2.763448         0.123056         0.100630
 O        -2.886062        -0.383441         1.510450
 C        -3.127224         1.490310        -0.262861
 C        -4.589741         1.532253        -0.478757
 C        -5.219529         1.161471        -1.766209
 O        -5.046794         2.521943        -1.338473
 H         1.588895        -0.275212        -1.186156
 H         1.945227         0.676271         0.241550
 H         1.607120        -1.072610         0.474649
 H        -3.386832        -0.667582        -0.458662
 H        -3.855401        -0.612113         1.636529
 H        -2.718384         2.041947         0.634583
 H        -2.685349         1.939697        -1.251526
 H        -5.172444         1.336015         0.506550
 H        -4.658661         1.076988        -2.755059
 H        -6.286309         0.710687        -1.743157
