19
Iteration:  4504charge 0 multiplicity 1
 C         0.416287        -0.466172        -1.317048
 C        -0.708871        -0.200180        -0.363139
 C        -1.501571         0.145839         0.470227
 C        -2.992143         0.174064         1.076507
 O        -2.688837         0.809056         2.465232
 C        -3.715761         1.243066         0.259481
 C        -3.817056         0.946035        -1.263537
 C        -3.849652         2.135622        -2.051197
 O        -5.027844         1.536436        -1.761650
 H         0.641810         0.491116        -1.937851
 H         1.330657        -0.775539        -0.771493
 H         0.034718        -1.367585        -1.913089
 H        -3.636934        -0.678149         1.294304
 H        -2.191283         0.157364         2.881936
 H        -4.769637         1.358853         0.688036
 H        -3.139724         2.115194         0.415965
 H        -3.530045        -0.095543        -1.589127
 H        -3.688829         3.079543        -1.659111
 H        -3.545466         2.038516        -3.116205
