19
Iteration:  3226charge 0 multiplicity 1
 C         1.298490         0.049571        -0.538335
 C        -0.044863        -0.124253         0.114630
 C        -1.253211        -0.099068         0.211087
 C        -2.729194        -0.034267         0.503105
 O        -3.036848        -0.053528         1.861678
 C        -3.256920         1.430265        -0.096633
 C        -4.532042         1.232320        -0.805778
 C        -4.893217         1.492665        -2.318850
 O        -5.307683         2.451788        -1.313944
 H         1.981403         0.628841         0.073540
 H         1.894436        -0.867890        -0.664004
 H         1.282749         0.438243        -1.603582
 H        -3.221472        -0.711115        -0.241028
 H        -2.583158        -0.773935         2.407759
 H        -3.311709         2.221388         0.775590
 H        -2.440740         1.675446        -0.856302
 H        -5.351397         0.591687        -0.434080
 H        -4.131108         1.809247        -2.977450
 H        -5.677773         0.844122        -2.786790
