19
Iteration:  2216
 C         1.387783        -0.387136         0.662920
 C         0.146866         0.054847         0.081008
 C        -1.015753         0.236082        -0.206785
 C        -2.478920         0.185648        -0.369901
 O        -3.089653        -0.055733         0.875304
 C        -3.087871         1.544793        -0.907538
 C        -4.503931         1.769378        -0.371901
 C        -5.534672         0.898650        -0.904205
 O        -5.469702         2.230091        -1.328204
 H         1.110616        -1.263007         1.345270
 H         2.096516        -0.898182        -0.088415
 H         1.880851         0.543623         1.044928
 H        -2.736318        -0.693180        -0.890199
 H        -2.578827         0.437980         1.594374
 H        -2.287081         2.209939        -0.759762
 H        -3.215886         1.487469        -2.007670
 H        -4.708785         2.496366         0.371229
 H        -5.128536         0.060211        -1.540705
 H        -6.447613         0.798352        -0.387689
