19
Iteration:  4037
 C         1.218268        -0.344417        -0.548009
 C        -0.194386        -0.133494        -0.306799
 C        -1.283485         0.164322         0.092191
 C        -2.691060         0.311848         0.636950
 O        -2.838948         0.321458         2.204370
 C        -3.492568         1.557927        -0.000442
 C        -4.718508         1.191898        -0.777912
 C        -4.508504         1.172228        -2.220884
 O        -5.305600         2.171336        -1.622765
 H         1.462591        -0.826923        -1.503894
 H         1.836619         0.591830        -0.432962
 H         1.563118        -1.081540         0.317730
 H        -3.270475        -0.476639         0.135742
 H        -2.475021        -0.597210         2.275628
 H        -3.711073         2.127957         0.942585
 H        -2.889042         2.256915        -0.647678
 H        -5.457618         0.775965        -0.166588
 H        -3.598285         1.525939        -2.649983
 H        -5.104323         0.379970        -2.801290
