19
Iteration:  4442
 C         0.283118        -0.299800        -1.312202
 C        -0.791231        -0.237837        -0.367708
 C        -1.692827         0.137981         0.331460
 C        -2.939512         0.235615         1.170099
 O        -2.574957         0.566650         2.496738
 C        -3.824525         1.402523         0.381721
 C        -3.899461         0.991682        -1.059443
 C        -3.569927         1.975844        -2.201149
 O        -4.975287         1.523108        -1.858019
 H         0.289913         0.486739        -1.965402
 H         1.291301        -0.361543        -0.830092
 H         0.260901        -1.174325        -1.946701
 H        -3.575632        -0.696105         1.179388
 H        -1.773942         1.029632         2.542642
 H        -4.810091         1.508765         0.823298
 H        -3.370539         2.430162         0.537524
 H        -3.673287        -0.094442        -1.351554
 H        -3.400693         3.020336        -2.028695
 H        -3.209687         1.520185        -3.204239
