19
Iteration:  2565
 C         1.261533        -0.110578        -0.442825
 C        -0.048114         0.105696        -0.013927
 C        -1.318802        -0.008924         0.024144
 C        -2.685667         0.214044         0.372686
 O        -2.988599        -0.355781         1.779361
 C        -3.370352         1.500468        -0.044768
 C        -4.641790         1.189460        -0.753668
 C        -4.700258         1.468221        -2.180457
 O        -5.279378         2.383307        -1.224011
 H         1.240008        -0.540041        -1.439159
 H         1.730178         0.870109        -0.746644
 H         1.966488        -0.529795         0.255329
 H        -3.230287        -0.647571         0.023394
 H        -2.808228         0.295699         2.456309
 H        -3.628514         2.163289         0.860018
 H        -2.560250         2.017664        -0.801459
 H        -5.266714         0.368596        -0.295186
 H        -3.760504         1.855719        -2.528447
 H        -5.353955         0.987836        -2.923929
