19
Iteration:   242
 C         1.558187        -0.229235         0.419816
 C         0.175461        -0.192586         0.097501
 C        -0.958158         0.179326        -0.223475
 C        -2.468161         0.165003        -0.347859
 O        -3.086040        -0.475177         0.870485
 C        -3.081415         1.556027        -0.513510
 C        -4.580074         1.656976        -0.372485
 C        -5.878671         1.257977        -1.078345
 O        -5.251530         2.506220        -1.282706
 H         2.071384        -1.167289         0.172286
 H         2.034595         0.577766        -0.121613
 H         1.692790        -0.024029         1.503340
 H        -2.652616        -0.575466        -1.220287
 H        -4.003591        -0.367870         0.561824
 H        -2.780327         2.171442         0.372722
 H        -2.821124         2.068420        -1.439056
 H        -4.752807         1.929362         0.586529
 H        -5.751672         0.472852        -1.832289
 H        -6.828474         1.282204        -0.524512
