19
Iteration:  1684charge 0 multiplicity 1
 C         0.267101         0.083807        -1.523921
 C        -0.687031        -0.127954        -0.454163
 C        -1.597361         0.005060         0.287789
 C        -2.952629         0.131162         1.069710
 O        -2.821093         0.370568         2.524369
 C        -3.765816         1.232570         0.446891
 C        -3.885839         0.901354        -1.033330
 C        -3.506443         1.865637        -2.076859
 O        -4.868361         1.862541        -1.735087
 H         0.199594         1.088052        -1.984993
 H         1.237310         0.038722        -0.943907
 H         0.319018        -0.741151        -2.301825
 H        -3.663662        -0.655826         0.991533
 H        -2.929947        -0.488916         3.004622
 H        -4.816884         1.217642         0.750417
 H        -3.296070         2.163186         0.548400
 H        -4.149383        -0.143697        -1.233415
 H        -3.066129         2.818236        -1.739585
 H        -3.246320         1.460569        -3.024100
