19
Iteration:  1830
 C         0.887339        -0.291458        -0.642634
 C        -0.495685         0.191121        -0.367987
 C        -1.677828         0.276183        -0.135078
 C        -2.845758         0.181438         0.667290
 O        -2.380297         0.091999         2.124440
 C        -3.915469         1.277499         0.490551
 C        -4.595892         1.030443        -0.855692
 C        -3.929510         1.400650        -2.123259
 O        -5.040596         2.234482        -1.705492
 H         1.586469         0.512649        -0.429229
 H         1.070020        -1.252091        -0.167626
 H         0.914729        -0.454038        -1.705932
 H        -3.224497        -0.848214         0.573800
 H        -2.177740         1.004955         2.318454
 H        -4.642528         1.190577         1.343928
 H        -3.374132         2.226425         0.421609
 H        -5.349222         0.185868        -0.839600
 H        -2.969914         2.009015        -2.236265
 H        -4.208552         1.006517        -3.111822
