19
Iteration:  1887charge 0 multiplicity 1
 C         1.117252        -0.197611        -0.749786
 C        -0.355772         0.053963        -0.374728
 C        -1.442974         0.264541         0.093019
 C        -2.769601         0.209585         0.696376
 O        -2.713628         0.048206         2.138756
 C        -3.752270         1.411354         0.330222
 C        -4.672606         1.223478        -0.806781
 C        -4.155156         1.251452        -2.176347
 O        -5.160082         2.218410        -1.678331
 H         1.790448         0.396398        -0.139630
 H         1.378836        -1.172608        -0.391208
 H         1.506375        -0.134237        -1.733087
 H        -3.265409        -0.665323         0.273340
 H        -2.082654        -0.693229         2.356219
 H        -4.469635         1.577318         1.176153
 H        -3.134295         2.399199         0.339036
 H        -5.429016         0.481810        -0.497552
 H        -3.229212         1.791695        -2.582330
 H        -4.707700         0.752919        -3.039181
