19
Iteration:  2588
 C         1.238823        -0.184456        -0.526343
 C        -0.157917         0.135537        -0.051950
 C        -1.313846         0.157143         0.157111
 C        -2.732345         0.022429         0.406007
 O        -2.912646        -0.282885         1.819064
 C        -3.360277         1.459138         0.113014
 C        -4.545043         1.274359        -0.804747
 C        -4.638798         1.583340        -2.300467
 O        -5.397682         2.281795        -1.288003
 H         1.288241        -0.643724        -1.518220
 H         1.892108         0.690740        -0.643625
 H         1.700065        -0.730464         0.300135
 H        -3.142605        -0.896687        -0.052434
 H        -2.146758         0.187352         2.221181
 H        -3.756611         1.904909         1.099427
 H        -2.474353         2.087086        -0.405538
 H        -5.117648         0.400390        -0.369334
 H        -3.959772         2.273420        -2.789513
 H        -5.211275         0.960954        -2.970957
