19
Iteration:  3793
 C         1.273007        -0.175101        -0.472074
 C        -0.008880        -0.008430         0.143402
 C        -1.227299        -0.034992         0.287294
 C        -2.656485         0.152948         0.522415
 O        -3.194175         0.221767         1.823942
 C        -3.107764         1.369943        -0.407445
 C        -4.576678         1.258013        -0.772775
 C        -5.160637         1.163752        -2.102308
 O        -5.087143         2.414150        -1.408609
 H         1.324321        -1.158454        -1.030133
 H         1.443860         0.583426        -1.215735
 H         2.208968        -0.128823         0.126842
 H        -3.050487        -0.775832         0.136688
 H        -2.416811        -0.102569         2.368426
 H        -3.056484         2.385529         0.178200
 H        -2.478478         1.334781        -1.303216
 H        -5.088017         0.871934         0.140468
 H        -4.632297         0.935545        -2.991876
 H        -6.175926         0.772750        -2.154892
