19
Iteration:  4039
 C         1.222546        -0.340652        -0.565435
 C        -0.201978        -0.136104        -0.291088
 C        -1.288288         0.168345         0.081077
 C        -2.687013         0.297184         0.637359
 O        -2.859932         0.333961         2.199304
 C        -3.500336         1.541581         0.011653
 C        -4.711025         1.207477        -0.772754
 C        -4.516373         1.160605        -2.207093
 O        -5.298007         2.173343        -1.629107
 H         1.506395        -0.826836        -1.472195
 H         1.866032         0.578150        -0.441856
 H         1.578227        -1.052427         0.219649
 H        -3.246836        -0.522252         0.191445
 H        -2.436918        -0.603996         2.257796
 H        -3.706035         2.151164         0.934137
 H        -2.825535         2.334349        -0.631663
 H        -5.429161         0.732034        -0.166445
 H        -3.534999         1.526346        -2.629024
 H        -5.056425         0.390091        -2.833379
