19
Iteration:  1796charge 0 multiplicity 1
 C         0.903473        -0.177904        -0.808308
 C        -0.582868        -0.050917        -0.522530
 C        -1.646616         0.104814         0.020703
 C        -2.902058         0.135187         0.771367
 O        -2.406788         0.268517         2.258284
 C        -4.024935         1.169492         0.491384
 C        -4.568588         1.052882        -0.989578
 C        -3.739969         1.501508        -2.158465
 O        -5.051856         2.253701        -1.665136
 H         1.393438         0.783192        -0.657304
 H         1.537100        -0.792883        -0.150976
 H         1.057995        -0.460381        -1.864899
 H        -3.120447        -0.947948         0.635302
 H        -2.153642         1.164365         2.419314
 H        -4.783751         0.944086         1.287510
 H        -3.696131         2.159210         0.758230
 H        -5.205691         0.099736        -1.042845
 H        -2.874720         2.173548        -2.079216
 H        -4.064222         1.293737        -3.178698
