19
Iteration:  4056
 C         1.229201        -0.329789        -0.642806
 C        -0.202954        -0.107498        -0.209902
 C        -1.331109         0.162471         0.108637
 C        -2.762442         0.251774         0.651881
 O        -2.920779         0.383727         2.004176
 C        -3.443121         1.551041         0.192584
 C        -4.663470         1.190372        -0.750046
 C        -4.475899         1.073865        -2.201535
 O        -5.230673         2.222862        -1.640370
 H         1.111442        -0.587151        -1.732840
 H         1.679368         0.645893        -0.626877
 H         1.777380        -1.057885         0.027090
 H        -3.299959        -0.687379         0.205360
 H        -2.361415        -0.123413         2.685035
 H        -3.768488         2.017448         1.114082
 H        -2.780080         2.048852        -0.352193
 H        -5.455995         0.458534        -0.315830
 H        -3.519585         1.279087        -2.601470
 H        -5.160215         0.402118        -2.737501
