19
Iteration:  4686
 C         0.884714        -0.513920        -0.631599
 C        -0.383171        -0.353699        -0.201510
 C        -1.503039        -0.002943         0.078690
 C        -2.741937         0.278986         0.761111
 O        -2.568857         0.589598         2.135721
 C        -3.672679         1.319394         0.191243
 C        -4.434620         1.010930        -1.105661
 C        -4.188865         1.865325        -2.252895
 O        -5.318871         2.071172        -1.516680
 H         1.441297         0.461428        -0.725901
 H         1.559366        -1.035569         0.028205
 H         1.085213        -1.015913        -1.563495
 H        -3.352734        -0.610561         0.589527
 H        -1.949648        -0.069552         2.682639
 H        -4.443136         1.446622         0.946659
 H        -3.072287         2.304379         0.104666
 H        -4.925384         0.040298        -1.154000
 H        -3.398609         2.640740        -2.187003
 H        -4.262922         1.616367        -3.420645
