19
Iteration:  3663
 C         1.452050        -0.132651         0.148453
 C        -0.068285         0.022127         0.157178
 C        -1.246975        -0.072906        -0.128108
 C        -2.679838         0.052742         0.067677
 O        -3.110789        -0.112571         1.444427
 C        -2.991530         1.552685        -0.623898
 C        -4.492959         1.924003        -0.549193
 C        -5.444794         1.000937        -1.170794
 O        -5.164294         2.261121        -1.780171
 H         1.649099        -1.208657         0.233200
 H         1.789459         0.257423        -0.767177
 H         1.877998         0.404719         1.024243
 H        -3.201234        -0.609043        -0.659989
 H        -2.525181        -0.752659         1.803340
 H        -2.409331         2.416624        -0.181449
 H        -2.580817         1.299115        -1.613714
 H        -5.005069         2.222683         0.425904
 H        -5.043854         0.193188        -1.751763
 H        -6.480870         0.833480        -0.710406
