19
Iteration:   760charge 0 multiplicity 1
 C         1.490431        -0.206486         0.022700
 C         0.044463         0.018755        -0.019262
 C        -1.180673         0.195969         0.031478
 C        -2.634819         0.103711        -0.060655
 O        -3.205539        -0.320559         1.167741
 C        -3.093334         1.467831        -0.351103
 C        -4.648829         1.510330        -0.324537
 C        -5.337503         1.207591        -1.632637
 O        -5.186370         2.534229        -1.237230
 H         2.090156         0.633203        -0.468023
 H         1.826685        -0.313961         1.110848
 H         1.664262        -1.098739        -0.655104
 H        -2.831165        -0.499335        -0.985589
 H        -2.553869        -0.958848         1.573050
 H        -2.740267         2.106824         0.551351
 H        -2.507328         1.682689        -1.299493
 H        -5.322952         1.390672         0.592862
 H        -4.776063         0.992350        -2.571029
 H        -6.260246         0.675071        -1.468808
