19
Iteration:  4227charge 0 multiplicity 1
 C         0.700238        -0.011061        -0.979809
 C        -0.595337         0.049186        -0.419581
 C        -1.694699        -0.010919         0.098192
 C        -2.892086         0.263167         0.857681
 O        -2.680010         0.249201         2.355715
 C        -3.650289         1.607800         0.507687
 C        -4.431672         1.259758        -0.778242
 C        -4.071822         0.840253        -2.182401
 O        -4.664647         2.123394        -1.953465
 H         0.539023         0.342806        -2.072641
 H         1.323244         0.777108        -0.460287
 H         1.178977        -0.986860        -0.899182
 H        -3.634869        -0.546808         0.731992
 H        -1.870288        -0.233464         2.668127
 H        -4.418048         2.022805         1.151164
 H        -3.013698         2.548271         0.276316
 H        -5.343627         0.814645        -0.488058
 H        -3.025075         0.818643        -2.433334
 H        -4.572019         0.099127        -2.879853
