19
Iteration:  4275charge 0 multiplicity 1
 C         0.735920        -0.094755        -1.135800
 C        -0.677458         0.060427        -0.453076
 C        -1.689927         0.019610         0.200313
 C        -2.900657         0.286739         0.912520
 O        -2.627353         0.446168         2.284482
 C        -3.888335         1.386815         0.397147
 C        -4.682927         1.094631        -0.847371
 C        -3.771033         0.981689        -2.085726
 O        -4.555997         2.156565        -1.805473
 H         0.743408         0.240747        -2.138807
 H         1.455963         0.346140        -0.535132
 H         0.872589        -1.157871        -1.072986
 H        -3.542638        -0.628233         0.929499
 H        -1.699292         0.410757         2.462352
 H        -4.605652         1.491420         1.263362
 H        -3.441769         2.367417         0.477102
 H        -5.743547         0.594190        -0.809285
 H        -2.656505         1.017342        -1.842756
 H        -3.934453         0.455597        -2.980970
