19
Iteration:  3807
 C         1.351625        -0.184716        -0.533315
 C        -0.041774        -0.130021         0.048803
 C        -1.210566         0.048180         0.465133
 C        -2.672190         0.103137         0.433831
 O        -3.143524         0.298499         1.827014
 C        -3.141007         1.365814        -0.308758
 C        -4.575372         1.166062        -0.782080
 C        -5.187904         1.178688        -2.167709
 O        -5.099840         2.409695        -1.388922
 H         1.434129        -1.072582        -1.042268
 H         1.459445         0.627807        -1.148363
 H         1.941467        -0.154775         0.364080
 H        -3.236299        -0.717357        -0.051533
 H        -2.463402         0.282954         2.541525
 H        -3.100879         2.217460         0.452465
 H        -2.418749         1.683890        -1.136945
 H        -5.312586         0.772300        -0.139710
 H        -4.505851         1.286997        -3.057718
 H        -6.172695         0.777138        -2.380355
