19
Iteration:  3786charge 0 multiplicity 1
 C         1.294105        -0.178707        -0.468714
 C        -0.016823         0.036634         0.167572
 C        -1.227610        -0.055306         0.260957
 C        -2.627679         0.201382         0.451575
 O        -3.205834         0.193470         1.859747
 C        -3.113095         1.305001        -0.438348
 C        -4.530361         1.322856        -0.700089
 C        -5.196213         1.129721        -2.060551
 O        -5.089643         2.436269        -1.437891
 H         1.172282        -1.104737        -0.919591
 H         1.309000         0.590575        -1.253462
 H         2.069857        -0.114257         0.271058
 H        -3.127784        -0.748647         0.046637
 H        -2.503987        -0.257780         2.304517
 H        -2.798607         2.193673         0.105609
 H        -2.638104         1.217337        -1.466214
 H        -5.169395         1.019287         0.094441
 H        -4.452712         1.011201        -2.948660
 H        -6.117916         0.587265        -2.248666
