19
Iteration:  1208charge 0 multiplicity 1
 C         1.296342        -0.114033        -0.318989
 C        -0.188899        -0.258534        -0.370507
 C        -1.337666         0.071069        -0.100894
 C        -2.730307         0.081748         0.459646
 O        -2.806044        -0.093741         1.906989
 C        -3.455575         1.472140         0.154522
 C        -4.748756         1.410679        -0.667038
 C        -4.843289         1.220760        -2.148880
 O        -5.066766         2.582946        -1.511742
 H         1.697533        -1.058100        -0.057906
 H         1.768617         0.142892        -1.205338
 H         1.572560         0.534964         0.462677
 H        -3.184236        -0.834388        -0.077190
 H        -1.858861        -0.348381         2.143561
 H        -3.896227         1.964880         1.033492
 H        -2.712387         2.215486        -0.144092
 H        -5.542479         0.957549        -0.054426
 H        -3.979867         0.886000        -2.795719
 H        -5.795019         0.707075        -2.459684
