19
Iteration:    80
 C         1.581346        -0.057312         0.222781
 C         0.100292        -0.127218         0.129687
 C        -1.114287        -0.008041         0.038440
 C        -2.464239        -0.023621        -0.229511
 O        -3.072340        -0.759108         0.805800
 C        -3.060418         1.509917        -0.519082
 C        -4.628147         1.735199        -0.356724
 C        -5.729283         1.350340        -1.285285
 O        -5.263900         2.774189        -1.152557
 H         2.060749        -0.969464         0.603515
 H         1.971311         0.118147        -0.767726
 H         1.889330         0.794124         0.837722
 H        -2.707052        -0.562144        -1.134183
 H        -3.689342        -0.263393         1.360449
 H        -2.375798         2.210020        -0.111420
 H        -2.868295         1.506398        -1.538162
 H        -4.970630         1.779662         0.666200
 H        -5.453002         0.884449        -2.142682
 H        -6.694221         1.292475        -0.976288
