19
Iteration:  1535charge 0 multiplicity 1
 C         0.371975        -0.028217        -1.508467
 C        -0.817584        -0.017792        -0.622994
 C        -1.584599        -0.020738         0.279607
 C        -2.893660         0.074622         1.096532
 O        -2.826032         0.621874         2.412957
 C        -3.994820         0.788402         0.383400
 C        -4.131874         0.824482        -1.116358
 C        -3.339723         1.832787        -1.805431
 O        -4.692577         2.111140        -1.614746
 H        -0.024212         0.090215        -2.529912
 H         1.050102         0.799642        -1.331373
 H         0.811483        -1.018625        -1.464999
 H        -3.248474        -0.966616         1.381371
 H        -2.309135         1.486262         2.366167
 H        -4.968257         0.380911         0.603950
 H        -4.111676         1.747191         0.865168
 H        -4.503998        -0.063048        -1.633354
 H        -2.594418         2.490093        -1.447573
 H        -3.100604         1.479155        -2.766895
