19
Iteration:  4901
 C         0.947071        -0.177517        -1.018732
 C        -0.426132        -0.096693        -0.254238
 C        -1.581994         0.130152         0.160708
 C        -2.922863         0.139852         0.765538
 O        -2.729937         0.209253         2.250716
 C        -3.833129         1.442897         0.447228
 C        -4.702054         1.496784        -0.823774
 C        -4.341397         0.926839        -2.094778
 O        -4.379068         2.331809        -1.898926
 H         1.585777         0.599382        -0.638695
 H         1.399421        -1.203119        -0.767811
 H         0.661849        -0.139082        -2.051211
 H        -3.627242        -0.634626         0.412577
 H        -2.117894        -0.535792         2.558722
 H        -4.562982         1.640885         1.334506
 H        -3.068808         2.264590         0.254939
 H        -5.759245         1.553382        -0.550898
 H        -3.339676         0.446281        -2.225916
 H        -5.069094         0.609298        -2.865529
