19
Iteration:  3843charge 0 multiplicity 1
 C         1.368705        -0.240582        -0.475379
 C        -0.081940        -0.220994        -0.100264
 C        -1.192440         0.045778         0.283724
 C        -2.662970         0.236106         0.546818
 O        -3.121110         0.311631         1.980296
 C        -3.193627         1.369078        -0.286972
 C        -4.697226         1.140954        -0.788304
 C        -4.930283         1.282792        -2.241965
 O        -5.311565         2.361469        -1.361137
 H         1.792386        -1.076839        -1.051910
 H         1.847457         0.684753        -0.966218
 H         2.009084        -0.330834         0.390135
 H        -3.155228        -0.762235         0.266859
 H        -2.221696         0.555944         2.377234
 H        -3.026144         2.291979         0.202566
 H        -2.746706         1.357834        -1.293067
 H        -5.283219         0.476032        -0.143639
 H        -3.987217         1.601325        -2.712085
 H        -5.640680         0.676628        -2.942197
