19
Iteration:  2326charge 0 multiplicity 1
 C         1.420942        -0.143504         0.653593
 C         0.101760         0.029772         0.101957
 C        -1.117771         0.147497        -0.221835
 C        -2.533950         0.056513        -0.423351
 O        -3.224225        -0.143561         0.884936
 C        -2.952926         1.410497        -0.971024
 C        -4.366874         1.776718        -0.453639
 C        -5.562325         1.050803        -0.717952
 O        -5.446640         2.296166        -1.387568
 H         1.768887        -1.125275         1.198745
 H         2.312195         0.043560        -0.016318
 H         1.458513         0.527445         1.561072
 H        -2.746913        -0.816398        -1.087878
 H        -2.443936        -0.366020         1.381899
 H        -2.243293         2.050955        -0.574579
 H        -2.988111         1.461851        -2.055194
 H        -4.564203         2.226443         0.529486
 H        -5.464747         0.248248        -1.422713
 H        -6.231335         0.963832         0.145106
