19
Iteration:  4546
 C         0.657794        -0.575523        -1.294357
 C        -0.499444        -0.317698        -0.265429
 C        -1.492348         0.017441         0.328643
 C        -2.847018         0.218054         1.092881
 O        -2.794195         0.815154         2.438275
 C        -3.808310         1.283920         0.353670
 C        -3.909148         1.114902        -1.133695
 C        -3.965544         2.152254        -2.191214
 O        -5.165000         1.579938        -1.774349
 H         0.915381         0.455455        -1.835716
 H         1.559418        -0.926937        -0.801827
 H         0.307314        -1.295879        -2.087616
 H        -3.267372        -0.824498         1.081086
 H        -2.393763         0.218856         3.153946
 H        -4.908319         1.154156         0.723948
 H        -3.394516         2.336549         0.579647
 H        -3.688804         0.153579        -1.590468
 H        -3.795218         3.238139        -1.975625
 H        -3.610741         2.038987        -3.268318
