19
Iteration:   951
 C         1.419643         0.018981         0.455283
 C        -0.026585        -0.182676         0.182354
 C        -1.081915        -0.191477        -0.411068
 C        -2.601005        -0.068124        -0.306094
 O        -2.901731        -0.282647         1.151726
 C        -3.130056         1.373279        -0.663347
 C        -4.584406         1.726122        -0.436958
 C        -5.642534         1.234390        -1.174795
 O        -5.238897         2.629438        -1.319837
 H         1.546308         0.640951         1.358675
 H         1.948273        -0.896461         0.742242
 H         1.803904         0.605461        -0.375539
 H        -2.992032        -0.937676        -0.902723
 H        -2.129786         0.209807         1.546431
 H        -2.482550         2.179078        -0.215433
 H        -2.793104         1.421235        -1.789955
 H        -4.932532         1.974007         0.639339
 H        -5.352082         0.744440        -2.074470
 H        -6.600763         1.169967        -0.737481
