19
Iteration:  4943
 C         0.737842        -0.083990        -0.994049
 C        -0.629949         0.018642        -0.488212
 C        -1.717246         0.129709         0.073926
 C        -3.029178         0.188885         0.841740
 O        -2.776232         0.169028         2.246247
 C        -3.786838         1.471709         0.547292
 C        -4.531176         1.436612        -0.771973
 C        -4.238410         0.814108        -2.111267
 O        -4.109490         2.243187        -1.851540
 H         1.397288         0.609506        -0.548450
 H         1.179228        -1.098059        -0.854070
 H         0.761249         0.126907        -2.063899
 H        -3.433457        -0.796181         0.550635
 H        -1.758836         0.406408         2.241356
 H        -4.495799         1.439851         1.425360
 H        -3.187072         2.319351         0.718202
 H        -5.599309         1.589939        -0.553485
 H        -3.301242         0.251805        -2.339040
 H        -5.018759         0.446084        -2.790291
