19
Iteration:  1920charge 0 multiplicity 1
 C         1.097261        -0.013022        -0.832646
 C        -0.221004        -0.064747        -0.146041
 C        -1.378998         0.048537         0.168844
 C        -2.739771         0.168004         0.736025
 O        -2.800131         0.079461         2.120522
 C        -3.568993         1.467753         0.272451
 C        -4.637764         1.209327        -0.812867
 C        -4.387772         1.219001        -2.283977
 O        -5.119989         2.258793        -1.646837
 H         1.743167         0.583680        -0.196432
 H         1.477714        -1.002296        -0.819776
 H         1.030718         0.330709        -1.835833
 H        -3.283979        -0.624062         0.151568
 H        -2.972766        -0.825613         2.339623
 H        -4.174601         1.712243         1.178695
 H        -2.970356         2.408051        -0.105152
 H        -5.497814         0.609193        -0.484571
 H        -3.435986         1.686750        -2.679374
 H        -5.134439         0.885807        -3.067682
