19
Iteration:   835
 C         1.488615        -0.054091         0.172315
 C         0.080147        -0.183515         0.397380
 C        -1.046448         0.039093        -0.043766
 C        -2.501491        -0.001055        -0.176690
 O        -3.099160        -0.224152         1.025887
 C        -3.112511         1.348768        -0.734236
 C        -4.524913         1.525754        -0.502182
 C        -5.663295         1.268848        -1.300245
 O        -5.290019         2.651539        -1.168080
 H         1.820698         1.006773         0.173215
 H         2.151242        -0.613966         0.886381
 H         1.731222        -0.424389        -0.853702
 H        -2.684845        -0.686310        -1.099399
 H        -2.734747        -0.996045         1.448972
 H        -2.580848         2.244577        -0.312508
 H        -3.052007         1.427560        -1.805642
 H        -4.919108         1.620697         0.558331
 H        -5.482441         0.809911        -2.347469
 H        -6.660931         1.045753        -0.860888
