19
Iteration:  2112charge 0 multiplicity 1
 C         1.490703        -0.119165        -0.015083
 C         0.024741        -0.031926        -0.026475
 C        -1.158883         0.112812         0.089266
 C        -2.621576         0.160647         0.164697
 O        -3.044824        -0.028744         1.467788
 C        -3.162529         1.448914        -0.492598
 C        -4.662467         1.529029        -0.475704
 C        -5.427712         1.004667        -1.513800
 O        -5.120954         2.394277        -1.595829
 H         1.828330        -0.433308         0.982474
 H         1.710178        -0.927780        -0.718292
 H         2.037648         0.823151        -0.170082
 H        -3.010004        -0.688419        -0.437307
 H        -3.331036        -0.921052         1.603169
 H        -2.707985         2.352165         0.000901
 H        -2.908975         1.418050        -1.535444
 H        -5.266660         1.721887         0.437297
 H        -5.073051         0.534736        -2.422102
 H        -6.402405         0.616402        -1.197580
