19
Iteration:  4524charge 0 multiplicity 1
 C         0.386466        -0.491882        -1.203367
 C        -0.622732        -0.284189        -0.315927
 C        -1.511056         0.050630         0.452029
 C        -2.755026         0.338190         1.046767
 O        -2.728399         0.773389         2.372013
 C        -3.714699         1.198002         0.278526
 C        -3.870409         1.050696        -1.228177
 C        -3.857322         2.161921        -2.137268
 O        -5.122638         1.515287        -1.717953
 H         0.577710         0.565164        -1.715785
 H         1.272308        -0.771247        -0.644339
 H         0.073718        -1.271574        -1.956321
 H        -3.320861        -0.647255         1.012156
 H        -2.451534         0.051081         2.941315
 H        -4.754707         1.004822         0.748270
 H        -3.447056         2.297765         0.357314
 H        -3.696224         0.123836        -1.751621
 H        -3.613977         3.150458        -1.662747
 H        -3.670513         2.185231        -3.217432
