19
Iteration:   841charge 0 multiplicity 1
 C         1.483090        -0.027584         0.203822
 C         0.050094        -0.204977         0.384269
 C        -1.075693        -0.001288        -0.090321
 C        -2.521918         0.013662        -0.217027
 O        -3.083270        -0.218715         1.057103
 C        -3.043697         1.370665        -0.785741
 C        -4.584633         1.548517        -0.435321
 C        -5.659782         1.279918        -1.331931
 O        -5.277156         2.592991        -1.149300
 H         1.753548         1.016163         0.334743
 H         2.151323        -0.565489         0.844758
 H         1.868896        -0.366218        -0.752132
 H        -2.671491        -0.608868        -1.076895
 H        -2.652352        -0.967064         1.476363
 H        -2.493868         2.208350        -0.414811
 H        -2.933690         1.385909        -1.907759
 H        -4.788276         1.726885         0.630839
 H        -5.605756         0.845707        -2.296763
 H        -6.630917         1.183876        -0.833847
