19
Iteration:  3904
 C         1.338654        -0.375838        -0.320342
 C        -0.129268        -0.067039        -0.016953
 C        -1.335815        -0.041879         0.084311
 C        -2.722266         0.247210         0.546097
 O        -2.731461         0.290402         1.951810
 C        -3.358364         1.540711        -0.149295
 C        -4.590683         1.156405        -0.945334
 C        -4.925582         1.270091        -2.367768
 O        -5.360602         2.267988        -1.304931
 H         1.313464        -1.220738        -1.037392
 H         1.818508         0.465226        -0.732191
 H         1.743670        -0.681382         0.706789
 H        -3.200002        -0.635866         0.164202
 H        -2.063475         0.958498         2.210046
 H        -3.778639         2.149125         0.749651
 H        -2.585651         2.185336        -0.635678
 H        -5.190137         0.337475        -0.560736
 H        -4.330822         1.775529        -3.127890
 H        -5.571007         0.573638        -2.774819
