19
Iteration:  3257
 C         1.307193         0.008151        -0.507395
 C        -0.067283        -0.000289         0.010411
 C        -1.231189        -0.023387         0.418879
 C        -2.675377        -0.004188         0.385879
 O        -3.195125        -0.131632         1.690529
 C        -3.245193         1.358352        -0.259610
 C        -4.643458         1.197653        -0.764916
 C        -4.925006         1.334229        -2.157503
 O        -5.103060         2.533369        -1.219315
 H         2.048021         0.516260         0.112410
 H         1.649072        -0.950714        -0.593348
 H         1.525357         0.583493        -1.385450
 H        -3.022942        -0.831787        -0.276559
 H        -2.587370         0.321200         2.271833
 H        -3.141771         2.209546         0.529393
 H        -2.611691         1.781378        -1.097415
 H        -5.345216         0.731919        -0.041306
 H        -4.071493         1.363714        -2.746336
 H        -5.909953         0.989936        -2.538404
