19
Iteration:  4839charge 0 multiplicity 1
 C         0.904616        -0.291905        -0.732604
 C        -0.452242        -0.070767        -0.432342
 C        -1.540596         0.060497         0.133010
 C        -2.895871         0.256170         0.774238
 O        -2.810988         0.092211         2.224222
 C        -3.476687         1.580978         0.210291
 C        -4.648478         1.344078        -0.719121
 C        -4.199058         1.073994        -2.090572
 O        -4.866209         2.357045        -1.840878
 H         1.624822         0.569732        -0.506051
 H         1.338191        -1.180450        -0.261188
 H         1.123438        -0.465822        -1.792599
 H        -3.508971        -0.591067         0.245291
 H        -1.904182        -0.327762         2.325757
 H        -3.754620         2.151210         1.054782
 H        -2.781356         2.247056        -0.374020
 H        -5.637474         0.992433        -0.446348
 H        -3.171096         1.120109        -2.004598
 H        -4.787344         0.461878        -2.815818
