19
Iteration:  2123charge 0 multiplicity 1
 C         1.518893        -0.172023         0.068209
 C         0.049239        -0.032897         0.083006
 C        -1.114029         0.081559        -0.035231
 C        -2.571908         0.140620         0.044427
 O        -3.089259         0.004101         1.439904
 C        -3.124826         1.475445        -0.474933
 C        -4.638966         1.616578        -0.400500
 C        -5.511989         0.951586        -1.535197
 O        -5.222186         2.380508        -1.581800
 H         1.893807        -0.563697         1.012528
 H         1.987328        -0.794953        -0.704470
 H         1.880995         0.817524        -0.230214
 H        -3.083413        -0.602761        -0.605429
 H        -2.938625        -0.934500         1.564921
 H        -2.535315         2.357153        -0.093045
 H        -2.939182         1.524501        -1.532895
 H        -5.063096         1.922395         0.586314
 H        -4.915617         0.241420        -2.117794
 H        -6.577811         0.751564        -1.349065
