19
Iteration:  2437
 C         1.509886         0.219649         0.067066
 C         0.008408         0.063434         0.032434
 C        -1.147192        -0.223669         0.007970
 C        -2.631273        -0.041624         0.017122
 O        -3.302142        -0.429610         1.291919
 C        -3.017375         1.406122        -0.522736
 C        -4.573392         1.649341        -0.423777
 C        -5.562124         1.152534        -1.354616
 O        -4.975405         2.518404        -1.507210
 H         1.948688        -0.759589        -0.306171
 H         1.660277         1.045536        -0.665477
 H         1.980994         0.491886         1.062822
 H        -3.025318        -0.787013        -0.726708
 H        -2.855863         0.093135         2.016945
 H        -2.553611         2.284935        -0.157593
 H        -2.898916         1.426177        -1.564451
 H        -4.968113         1.934066         0.590192
 H        -5.232632         0.472254        -2.138881
 H        -6.652452         1.247670        -1.292798
