19
Iteration:  4541charge 0 multiplicity 1
 C         0.601234        -0.535758        -1.280503
 C        -0.508493        -0.332317        -0.275434
 C        -1.546345         0.025831         0.366479
 C        -2.808429         0.240148         1.040359
 O        -2.792263         0.825944         2.465568
 C        -3.763347         1.272524         0.308115
 C        -3.925842         1.060445        -1.150904
 C        -3.941172         2.192532        -2.187442
 O        -5.157759         1.576899        -1.756282
 H         0.841478         0.298890        -1.830891
 H         1.542732        -0.942211        -0.860420
 H         0.307585        -1.237017        -2.035984
 H        -3.184046        -0.786664         1.081639
 H        -2.444213         0.136199         3.006532
 H        -4.709752         1.053192         0.699872
 H        -3.491206         2.257518         0.695582
 H        -3.532375         0.085043        -1.511711
 H        -3.876844         3.308484        -2.011133
 H        -3.537472         1.893788        -3.142378
