19
Iteration:  1490
 C         0.494608        -0.076428        -1.231075
 C        -0.779714         0.077328        -0.394139
 C        -1.862888         0.026883         0.021107
 C        -2.922706         0.076382         0.990512
 O        -2.404805         0.518751         2.258951
 C        -4.260247         0.815252         0.454775
 C        -4.219572         0.894611        -1.085496
 C        -3.382304         1.739359        -1.854304
 O        -4.746836         2.175241        -1.649735
 H         0.316123        -0.179025        -2.297343
 H         1.007797         0.863335        -1.158844
 H         1.047118        -0.937044        -0.883499
 H        -3.202175        -0.989800         1.292043
 H        -1.697666         1.143573         1.914931
 H        -5.129689         0.256282         0.895690
 H        -4.458609         1.798986         0.824127
 H        -4.517737         0.021029        -1.682849
 H        -2.647683         2.329445        -1.365424
 H        -3.076747         1.548104        -2.821039
