19
Iteration:  1841
 C         0.849196        -0.272100        -0.632742
 C        -0.442517         0.188440        -0.347239
 C        -1.616185         0.343706        -0.166823
 C        -2.883379         0.170250         0.694523
 O        -2.467231         0.090304         2.049734
 C        -3.842180         1.299200         0.466009
 C        -4.583694         1.080568        -0.897419
 C        -3.949607         1.342107        -2.188297
 O        -5.055165         2.191894        -1.556538
 H         1.722160         0.313228        -0.343733
 H         1.062345        -1.222894        -0.152722
 H         0.953477        -0.427557        -1.688952
 H        -3.514014        -0.677780         0.385622
 H        -1.965077         0.883461         2.229942
 H        -4.566723         1.476566         1.308526
 H        -3.377458         2.294401         0.413644
 H        -5.369341         0.256670        -0.951081
 H        -2.896199         1.711493        -1.912144
 H        -4.057813         0.648674        -3.047003
