19
Iteration:  2480
 C         1.322529         0.173129        -0.224200
 C        -0.050437         0.047397         0.136092
 C        -1.225319        -0.044791         0.078252
 C        -2.682361        -0.042066         0.161364
 O        -3.122623        -0.444628         1.489017
 C        -3.139619         1.389512        -0.370495
 C        -4.600175         1.553420        -0.492518
 C        -5.297441         1.207581        -1.768263
 O        -4.996434         2.579092        -1.431089
 H         1.496063        -0.800618        -0.768087
 H         1.634342         1.090204        -0.735766
 H         1.985299         0.154928         0.689608
 H        -3.120199        -0.857564        -0.551114
 H        -2.444348        -0.244615         2.199030
 H        -2.733618         2.106595         0.370253
 H        -2.551033         1.567575        -1.290429
 H        -5.190283         1.407593         0.450466
 H        -4.753359         0.711169        -2.552817
 H        -6.340229         0.893000        -1.716833
