19
Iteration:  1392
 C         0.734690        -0.127845        -1.002090
 C        -0.541092         0.053229        -0.343583
 C        -1.671001        -0.018743         0.189471
 C        -2.887942         0.035152         0.899642
 O        -2.579957         0.120581         2.330828
 C        -3.756453         1.223370         0.395500
 C        -4.315660         1.100469        -1.049455
 C        -3.906866         1.789515        -2.404100
 O        -5.077689         2.156268        -1.561360
 H         0.750980        -0.807436        -1.965066
 H         1.084514         0.928078        -1.368665
 H         1.513740        -0.540007        -0.243162
 H        -3.386176        -0.994111         0.886756
 H        -1.847493         0.784304         2.406566
 H        -4.560379         1.303259         1.160370
 H        -3.047135         2.012127         0.652233
 H        -4.627514         0.035783        -1.060387
 H        -3.100508         2.492178        -2.414941
 H        -4.119894         1.283127        -3.305818
