19
Iteration:  2066charge 0 multiplicity 1
 C         1.472389        -0.015649        -0.430358
 C        -0.029461         0.128936        -0.043737
 C        -1.156199        -0.051581         0.297282
 C        -2.653176         0.041284         0.385918
 O        -3.107131        -0.045014         1.787668
 C        -3.222625         1.261869        -0.296062
 C        -4.618775         1.451075        -0.640677
 C        -5.235044         1.082492        -1.884604
 O        -5.082660         2.496024        -1.558879
 H         2.086106        -0.057452         0.434851
 H         1.566960        -0.879779        -1.015457
 H         1.743572         0.887824        -0.876225
 H        -3.198652        -0.778899        -0.136242
 H        -4.060433         0.254380         1.780141
 H        -2.881458         2.141242         0.347777
 H        -2.695716         1.300795        -1.242587
 H        -5.245013         1.374136         0.249119
 H        -4.679980         0.536629        -2.677796
 H        -6.269891         0.821428        -1.902885
