19
Iteration:  1892
 C         1.129207        -0.181487        -0.749650
 C        -0.298348         0.029530        -0.382427
 C        -1.409207         0.252624         0.131464
 C        -2.818816         0.184918         0.678289
 O        -2.711717         0.057104         2.181739
 C        -3.724703         1.408318         0.340988
 C        -4.641063         1.242325        -0.814943
 C        -4.194258         1.228712        -2.177529
 O        -5.183633         2.250654        -1.712710
 H         1.764122         0.454382        -0.074079
 H         1.549925        -1.208762        -0.456325
 H         1.348373        -0.048896        -1.881683
 H        -3.331733        -0.658763         0.139000
 H        -2.290369        -0.785641         2.331140
 H        -4.383666         1.523617         1.195176
 H        -3.218012         2.328642         0.219322
 H        -5.436595         0.527712        -0.593247
 H        -3.418227         1.837048        -2.519107
 H        -4.763665         0.729051        -2.904417
