19
Iteration:   194charge 0 multiplicity 1
 C         1.415162        -0.088203         0.543018
 C         0.012456        -0.026052        -0.034607
 C        -1.181851        -0.107489        -0.370802
 C        -2.620136         0.128908        -0.411918
 O        -3.193294        -0.539514         0.825314
 C        -2.945826         1.576621        -0.564709
 C        -4.472131         1.868416        -0.272211
 C        -5.450376         1.056573        -1.008146
 O        -5.308204         2.580126        -1.211879
 H         1.761713        -1.144064         0.539831
 H         2.184077         0.504783        -0.026566
 H         1.426416         0.267184         1.597816
 H        -2.886659        -0.544550        -1.291524
 H        -2.307865        -0.528859         1.326501
 H        -2.326285         2.261854         0.095915
 H        -2.742059         1.895235        -1.689343
 H        -4.646456         2.094369         0.857266
 H        -5.098570         0.539195        -1.991447
 H        -6.436426         0.688216        -0.563011
