19
Iteration:  2810charge 0 multiplicity 1
 C         0.367089         0.225656        -1.486918
 C        -0.732731         0.181605        -0.502762
 C        -1.607357         0.070506         0.298120
 C        -2.902906        -0.032335         1.032516
 O        -2.735055         0.188862         2.502536
 C        -4.016525         0.828915         0.369056
 C        -4.027474         0.942333        -1.150480
 C        -3.407749         1.981924        -1.944498
 O        -4.807603         2.035184        -1.658620
 H         0.007097         0.376896        -2.496343
 H         1.162029         0.817442        -1.085544
 H         0.804651        -0.777309        -1.661381
 H        -3.245917        -1.037489         0.969644
 H        -3.242923        -0.397719         3.079447
 H        -5.028541         0.451042         0.782750
 H        -3.808505         1.848078         0.954863
 H        -4.074278        -0.019709        -1.726136
 H        -2.878415         2.802915        -1.518171
 H        -3.058952         1.561902        -2.894666
