19
Iteration:  2510charge 0 multiplicity 1
 C         1.441430         0.153717        -0.293429
 C         0.002932        -0.040704        -0.159917
 C        -1.156116        -0.088211         0.165665
 C        -2.686593        -0.001503         0.307213
 O        -3.189530        -0.372667         1.620917
 C        -3.171095         1.460030        -0.148774
 C        -4.718148         1.444031        -0.589254
 C        -5.162247         1.293532        -2.025924
 O        -5.103173         2.535268        -1.358165
 H         1.725931        -0.669595        -0.928802
 H         1.755198         1.111908        -0.690210
 H         1.836884        -0.168659         0.642138
 H        -3.083996        -0.829260        -0.275335
 H        -2.666604        -0.147065         2.381695
 H        -3.050189         2.229505         0.693319
 H        -2.468749         1.780681        -1.061709
 H        -5.405681         1.038193         0.173899
 H        -4.373125         1.018735        -2.681319
 H        -6.187826         0.971353        -2.256986
