19
Iteration:  2028
 C         1.151185         0.135052        -0.646821
 C        -0.077033        -0.123129         0.111938
 C        -1.317942        -0.027933         0.342692
 C        -2.711184         0.098931         0.482464
 O        -3.015271        -0.003206         1.872102
 C        -3.171531         1.249930        -0.211759
 C        -4.628958         1.238367        -0.704709
 C        -4.994589         1.134340        -2.072606
 O        -4.960711         2.493481        -1.484396
 H         2.081085         0.421602        -0.057335
 H         1.637286        -0.512849        -1.446095
 H         0.742262         1.027126        -1.222219
 H        -3.087831        -0.838341        -0.053171
 H        -3.535253         0.813606         2.102330
 H        -3.040809         2.175683         0.299838
 H        -2.536157         1.453768        -1.130663
 H        -5.515596         1.128286        -0.039923
 H        -4.144244         1.016480        -2.739479
 H        -5.968942         0.589939        -2.243628
