19
Iteration:  1691charge 0 multiplicity 1
 C         0.309574         0.070696        -1.460730
 C        -0.641254        -0.125433        -0.469130
 C        -1.617867        -0.038259         0.329467
 C        -2.933978         0.081499         1.127383
 O        -2.785631         0.396621         2.529625
 C        -3.801542         1.206873         0.432671
 C        -3.948437         0.936507        -1.073402
 C        -3.568046         1.877124        -2.118914
 O        -4.896668         1.919135        -1.739265
 H         0.112987         1.088680        -1.913463
 H         1.374349        -0.023362        -1.126424
 H         0.367873        -0.622698        -2.332511
 H        -3.504555        -0.947020         0.945893
 H        -2.921586        -0.440089         2.958607
 H        -4.768575         1.157258         0.923564
 H        -3.309666         2.238074         0.526564
 H        -3.935812        -0.109211        -1.418152
 H        -2.719300         2.613925        -1.982134
 H        -3.345546         1.473982        -3.142324
