19
Iteration:  2477charge 0 multiplicity 1
 C         1.312722         0.169008        -0.199182
 C        -0.033005         0.049735         0.145748
 C        -1.256239        -0.025997         0.074013
 C        -2.660652        -0.085311         0.139245
 O        -3.127509        -0.434984         1.479464
 C        -3.136873         1.378794        -0.369759
 C        -4.590494         1.576539        -0.465706
 C        -5.325137         1.192995        -1.754200
 O        -4.995543         2.584286        -1.442845
 H         1.479378        -0.739266        -0.766049
 H         1.645916         1.052542        -0.744768
 H         2.008483         0.206367         0.612407
 H        -3.096031        -0.834151        -0.601570
 H        -2.424382        -0.192800         2.092027
 H        -2.639392         2.069989         0.402508
 H        -2.493862         1.569176        -1.353435
 H        -5.107753         1.402176         0.490424
 H        -4.736744         0.688006        -2.496557
 H        -6.388762         0.909334        -1.797366
