19
Iteration:   185charge 0 multiplicity 1
 C         1.346415        -0.094669         0.528308
 C        -0.001735         0.038506        -0.050499
 C        -1.170905        -0.030010        -0.380401
 C        -2.671225         0.040591        -0.377707
 O        -3.204630        -0.575288         0.815002
 C        -2.947153         1.614939        -0.598933
 C        -4.386796         1.879123        -0.295988
 C        -5.353387         1.061861        -1.032487
 O        -5.289718         2.551220        -1.160129
 H         1.671765        -1.150425         0.533554
 H         2.109492         0.463773        -0.053160
 H         1.343283         0.328236         1.559283
 H        -3.292227        -0.516994        -1.154865
 H        -2.725765        -0.205675         1.637376
 H        -2.202376         2.056759         0.105162
 H        -2.701613         1.806332        -1.702436
 H        -4.713254         1.949630         0.718376
 H        -5.142621         0.430388        -1.979991
 H        -6.222433         0.687748        -0.413038
