19
Iteration:   623charge 0 multiplicity 1
 C         1.306300        -0.118702        -0.520078
 C         0.023946         0.043410         0.135607
 C        -1.184349         0.039678         0.165285
 C        -2.637953         0.028382         0.332051
 O        -3.006192        -0.313683         1.734343
 C        -3.325342         1.314844        -0.128481
 C        -4.737114         1.386191        -0.669650
 C        -4.975191         1.489290        -2.079554
 O        -5.227401         2.609152        -1.353607
 H         1.294491         0.399561        -1.455612
 H         2.190334         0.152331        -0.006833
 H         1.366035        -1.162010        -0.769100
 H        -3.008589        -0.836004        -0.206563
 H        -2.463000        -1.032169         2.013640
 H        -3.354188         1.903036         0.705952
 H        -2.561749         1.694027        -0.718478
 H        -5.351742         0.911482         0.018656
 H        -4.115215         1.615447        -2.754643
 H        -5.901099         1.031461        -2.460043
