19
Iteration:  4472
 C         0.331636        -0.384153        -1.323149
 C        -0.691335        -0.073519        -0.435175
 C        -1.623009        -0.151654         0.310434
 C        -2.850001         0.202911         1.119021
 O        -2.765858         0.742934         2.477180
 C        -3.751723         1.406686         0.441946
 C        -3.820384         1.028145        -1.044496
 C        -3.743351         2.038641        -2.142350
 O        -4.964602         1.491174        -1.882176
 H         0.498259         0.371586        -2.097693
 H         1.236709        -0.610583        -0.749044
 H        -0.022468        -1.294439        -1.879457
 H        -3.599499        -0.596200         1.200544
 H        -1.874869         0.874815         2.930217
 H        -4.701892         1.142517         0.944758
 H        -3.453258         2.353725         0.723166
 H        -3.645619        -0.022064        -1.416910
 H        -3.604992         3.032181        -1.857183
 H        -3.353854         1.782310        -3.151132
