19
Iteration:  4730
 C         1.056074        -0.502459        -0.679351
 C        -0.327757        -0.158165        -0.224859
 C        -1.473737        -0.111800         0.167752
 C        -2.701457         0.126097         0.776814
 O        -2.764368         0.547957         2.191674
 C        -3.626225         1.292467         0.249112
 C        -4.508175         1.048055        -1.096126
 C        -4.334905         1.699434        -2.411903
 O        -5.196975         2.316373        -1.483714
 H         1.769347         0.393504        -0.804285
 H         1.482382        -1.227051         0.013794
 H         1.008844        -0.988671        -1.663725
 H        -3.187569        -0.843725         0.815520
 H        -1.807512         0.264914         2.505117
 H        -4.313693         1.553396         1.009706
 H        -3.120057         2.268485        -0.015327
 H        -5.165581         0.173180        -1.169316
 H        -3.383513         2.154220        -2.719533
 H        -4.903591         1.306476        -3.392312
