19
Iteration:  1030
 C         1.465038        -0.216235        -0.023774
 C         0.092271         0.172076         0.213435
 C        -1.133337         0.096755         0.218717
 C        -2.619822         0.019195        -0.112330
 O        -3.331931        -0.290454         1.089030
 C        -3.058807         1.407771        -0.682673
 C        -4.532045         1.630634        -0.394349
 C        -5.423161         1.079702        -1.368939
 O        -5.120888         2.547482        -1.267600
 H         2.087894        -0.357985         0.811314
 H         1.403396        -1.083250        -0.655094
 H         1.925310         0.506968        -0.663906
 H        -2.718193        -0.858839        -0.671876
 H        -2.894555         0.093416         1.872622
 H        -2.373899         2.127499        -0.209732
 H        -3.084492         1.571946        -1.777447
 H        -5.079022         1.806581         0.618411
 H        -5.070159         0.593570        -2.287663
 H        -6.432404         0.806352        -1.118881
