19
Iteration:   603charge 0 multiplicity 1
 C         1.376070        -0.057696        -0.650776
 C        -0.011553        -0.139096         0.071737
 C        -1.185432         0.011797         0.369033
 C        -2.650438         0.037812         0.442136
 O        -3.075933        -0.338645         1.753703
 C        -3.278038         1.525832        -0.104532
 C        -4.761772         1.341817        -0.759929
 C        -5.000421         1.439601        -2.242559
 O        -5.191577         2.589503        -1.241446
 H         1.174866         0.598866        -1.499647
 H         2.103626         0.414298        -0.000668
 H         1.813474        -1.031168        -0.858261
 H        -2.974439        -0.761520        -0.234073
 H        -2.418568        -0.989534         2.064885
 H        -3.136831         2.235323         0.695626
 H        -2.675345         1.798835        -0.945886
 H        -5.352300         0.800487        -0.131244
 H        -4.159474         1.616515        -2.919732
 H        -5.957283         0.977541        -2.580129
