19
Iteration:  3071
 C         1.099240        -0.174855        -0.671258
 C        -0.318899         0.103571        -0.429930
 C        -1.452740         0.242714         0.028536
 C        -2.803749         0.178437         0.616262
 O        -2.679027         0.087543         2.054450
 C        -3.881225         1.224949         0.394541
 C        -4.557601         0.992539        -0.933015
 C        -4.032510         1.599022        -2.156869
 O        -5.159206         2.173880        -1.464960
 H         1.634946         0.806387        -0.546018
 H         1.423388        -0.923673         0.011574
 H         1.070643        -0.412257        -1.749135
 H        -3.295371        -0.701581         0.230289
 H        -3.422594        -0.484660         2.285605
 H        -4.552842         1.204556         1.260298
 H        -3.391840         2.208462         0.397665
 H        -5.127112         0.063910        -1.054002
 H        -3.294307         2.352328        -2.050093
 H        -4.247035         1.303305        -3.122354
