19
Iteration:  2444charge 0 multiplicity 1
 C         1.464622         0.235792         0.006136
 C         0.037147         0.075369         0.114048
 C        -1.192548        -0.191979         0.011624
 C        -2.630417        -0.070696         0.038985
 O        -3.265137        -0.413131         1.292108
 C        -3.140131         1.338815        -0.497319
 C        -4.569344         1.672874        -0.407012
 C        -5.489773         1.160129        -1.416099
 O        -4.960197         2.544229        -1.524018
 H         1.875242        -0.691328        -0.396182
 H         1.775042         0.922369        -0.792177
 H         1.954009         0.296781         0.951069
 H        -3.070828        -0.787682        -0.740668
 H        -2.698097         0.128950         1.929089
 H        -2.576886         2.143354         0.122722
 H        -2.869014         1.483461        -1.662388
 H        -4.904515         1.746567         0.627204
 H        -5.088104         0.502527        -2.156236
 H        -6.543014         1.097866        -1.121281
