19
Iteration:  1656
 C         0.153881         0.004299        -1.567515
 C        -0.849708         0.076839        -0.572296
 C        -1.606162         0.083855         0.344463
 C        -2.959986         0.126204         1.034211
 O        -2.893070         0.292092         2.464876
 C        -3.740645         1.309763         0.541243
 C        -3.868991         0.950698        -0.946018
 C        -3.328776         1.900133        -1.963323
 O        -4.808300         1.660089        -1.814839
 H         0.038868         0.853052        -2.244421
 H         1.047129         0.205757        -1.002660
 H         0.152094        -0.927007        -2.083572
 H        -3.769277        -0.667664         0.882432
 H        -2.387032        -0.379172         2.905345
 H        -4.732648         1.526830         1.029034
 H        -3.108810         2.256640         0.606745
 H        -3.635303        -0.108974        -1.195662
 H        -2.934049         2.839557        -1.584600
 H        -3.031977         1.325437        -2.877992
