19
Iteration:  4615
 C         0.753539        -0.626184        -0.783640
 C        -0.530215        -0.189830        -0.347851
 C        -1.703219         0.175794         0.065010
 C        -2.918200         0.257529         0.954628
 O        -2.481382         0.556513         2.287673
 C        -3.823982         1.383588         0.217736
 C        -4.066252         1.053891        -1.146143
 C        -4.004693         2.114257        -2.248132
 O        -5.262630         1.679269        -1.580599
 H         1.440168         0.200440        -1.118889
 H         1.347958        -1.124237         0.098794
 H         0.842099        -1.348397        -1.666337
 H        -3.449510        -0.736950         1.007736
 H        -1.514724         0.161760         2.380098
 H        -4.672734         1.611987         0.925714
 H        -3.174700         2.220623         0.327239
 H        -3.925021        -0.067301        -1.217685
 H        -3.677824         3.113497        -2.080262
 H        -3.795983         1.760554        -3.230610
