19
Iteration:  3461
 C         1.478012        -0.225064         0.547992
 C         0.048514        -0.136515         0.230266
 C        -1.094567        -0.030640        -0.195142
 C        -2.477328         0.232537        -0.256454
 O        -2.959997        -0.155649         1.104995
 C        -3.043623         1.612139        -0.845086
 C        -4.537591         1.813109        -0.453144
 C        -5.562887         0.940538        -0.965064
 O        -5.455353         2.328572        -1.567315
 H         1.541817        -0.856349         1.483019
 H         2.130300        -0.595235        -0.284453
 H         1.829122         0.803089         0.674420
 H        -2.837286        -0.471849        -1.071643
 H        -3.865030         0.113884         1.239159
 H        -2.359867         2.513601        -0.621527
 H        -3.136768         1.449988        -1.956003
 H        -4.629420         2.249678         0.519369
 H        -5.252340         0.301351        -1.751669
 H        -6.494402         0.840007        -0.350331
