19
Iteration:  1773
 C         0.781528        -0.065313        -0.956033
 C        -0.536850        -0.140584        -0.460294
 C        -1.656636         0.037200         0.021031
 C        -2.911546         0.107727         0.905069
 O        -2.658342         0.425817         2.199459
 C        -3.902681         1.080287         0.384602
 C        -4.368688         0.881339        -1.019955
 C        -3.753865         1.612281        -2.093126
 O        -4.952288         2.242665        -1.521956
 H         1.130622         0.970342        -1.039564
 H         1.542088        -0.600396        -0.335696
 H         0.592714        -0.518151        -1.961890
 H        -3.284675        -0.956227         0.892821
 H        -1.816232         0.984305         2.218461
 H        -4.743604         1.134716         1.107221
 H        -3.520583         2.060718         0.321395
 H        -5.167574         0.120150        -1.174797
 H        -2.984990         2.300440        -1.848575
 H        -3.781334         1.245940        -3.114557
