19
Iteration:  4954charge 0 multiplicity 1
 C         0.698802        -0.061579        -1.032947
 C        -0.670997         0.078084        -0.473757
 C        -1.776585         0.146871        -0.030307
 C        -3.037255         0.149029         0.834534
 O        -2.774834         0.163467         2.264025
 C        -3.758194         1.426000         0.599734
 C        -4.501538         1.426850        -0.772142
 C        -4.171776         0.785341        -2.051515
 O        -4.032882         2.219211        -1.869284
 H         1.270671         0.612598        -0.488375
 H         1.059986        -1.106757        -0.855762
 H         0.708090         0.176378        -2.083800
 H        -3.926227        -0.455013         0.654204
 H        -1.853559         0.675878         2.395899
 H        -4.641880         1.593885         1.276198
 H        -3.107706         2.241643         0.626721
 H        -5.607731         1.422675        -0.702756
 H        -3.190693         0.358015        -2.241079
 H        -5.136707         0.543984        -2.511199
