19
Iteration:  2295
 C         1.511420        -0.255187         0.784253
 C         0.217044        -0.086977         0.078762
 C        -1.021064         0.064754        -0.216805
 C        -2.444728         0.268096        -0.454037
 O        -3.156575        -0.074231         0.815803
 C        -3.111562         1.535299        -1.054636
 C        -4.474225         1.830451        -0.372077
 C        -5.639341         1.015671        -0.681924
 O        -5.485929         2.224172        -1.394632
 H         1.496530        -1.135518         1.469949
 H         2.389865        -0.033495         0.171495
 H         1.559230         0.544383         1.578578
 H        -2.702526        -0.524548        -1.101877
 H        -2.636972        -0.840674         1.222985
 H        -2.313528         2.247612        -1.226514
 H        -3.425616         1.168738        -2.005092
 H        -4.508411         2.291943         0.649397
 H        -5.557112         0.133868        -1.335341
 H        -6.474780         0.882554         0.065839
