19
Iteration:  3893
 C         1.211627        -0.354807        -0.309158
 C        -0.119420         0.011597        -0.013808
 C        -1.339599        -0.075828         0.214726
 C        -2.718094         0.183388         0.460561
 O        -2.731868         0.289390         1.880495
 C        -3.289673         1.522090        -0.163601
 C        -4.516571         1.171252        -0.895494
 C        -4.940205         1.312803        -2.344800
 O        -5.362256         2.221775        -1.335137
 H         1.285164        -1.194726        -1.029355
 H         1.774258         0.391826        -0.784335
 H         1.967127        -0.688306         0.480461
 H        -3.494165        -0.536061         0.435355
 H        -2.182815         0.989709         2.136082
 H        -3.624029         2.103202         0.790632
 H        -2.728499         2.254109        -0.802603
 H        -4.999909         0.376513        -0.334616
 H        -4.242900         1.770690        -3.063743
 H        -5.701330         0.702934        -2.657041
