19
Iteration:  4043charge 0 multiplicity 1
 C         1.231714        -0.329848        -0.588766
 C        -0.189264        -0.142470        -0.271142
 C        -1.330669         0.180828         0.079192
 C        -2.684775         0.285619         0.629804
 O        -2.888433         0.342899         2.166597
 C        -3.487722         1.537531         0.044747
 C        -4.690498         1.233868        -0.755279
 C        -4.525566         1.128530        -2.199064
 O        -5.286112         2.187073        -1.640623
 H         1.553108        -0.842704        -1.529865
 H         1.854582         0.530006        -0.473832
 H         1.636477        -1.027626         0.088437
 H        -3.210695        -0.678002         0.347408
 H        -2.439731        -0.465265         2.339650
 H        -3.735490         2.167933         0.887004
 H        -2.827925         2.255549        -0.470212
 H        -5.448404         0.544043        -0.183022
 H        -3.511992         1.463793        -2.546005
 H        -4.959388         0.451239        -2.874570
