19
Iteration:  2950
 C         0.294354         0.514372        -1.430295
 C        -0.819445         0.053816        -0.606941
 C        -1.704650        -0.216355         0.264922
 C        -2.981119        -0.048191         1.020285
 O        -2.780911         0.255848         2.443608
 C        -3.842511         1.093824         0.452684
 C        -4.070193         0.828237        -1.056298
 C        -3.265846         1.774039        -1.929808
 O        -4.697798         1.974603        -1.682860
 H         0.083940         1.559303        -1.878259
 H         1.128832         0.372243        -0.698766
 H         0.367779        -0.245450        -2.279696
 H        -3.402832        -1.071608         0.825236
 H        -3.675017         0.182556         2.899335
 H        -4.745886         1.120381         0.976398
 H        -3.354668         2.034862         0.663482
 H        -4.199804        -0.229729        -1.416300
 H        -2.672305         2.595918        -1.571900
 H        -3.172993         1.575547        -2.980757
