19
Iteration:   687
 C         1.411185        -0.121461        -0.060367
 C        -0.044128        -0.195695        -0.395286
 C        -1.238517         0.099565        -0.106688
 C        -2.680964         0.156804         0.190239
 O        -3.032548        -0.279902         1.560304
 C        -3.274352         1.512664        -0.024386
 C        -4.664508         1.503740        -0.451772
 C        -5.021244         1.242238        -1.976295
 O        -5.237151         2.539857        -1.261129
 H         1.932890         0.586400        -0.696211
 H         1.460021         0.224605         0.951102
 H         1.909320        -1.057584        -0.234767
 H        -2.982918        -0.575765        -0.596932
 H        -2.598121        -1.167077         1.545541
 H        -3.116889         1.963276         0.934788
 H        -2.685969         2.102757        -0.774416
 H        -5.326263         1.055606         0.286107
 H        -4.215647         1.189468        -2.710824
 H        -5.912707         0.743292        -2.330965
