19
Iteration:  2715
 C         0.939787         0.017550        -0.725771
 C        -0.506593        -0.032728        -0.515551
 C        -1.645495         0.047557         0.022903
 C        -2.885128        -0.039751         0.755014
 O        -2.521570         0.061763         2.185340
 C        -3.791224         1.112720         0.401479
 C        -4.325783         1.083430        -1.049795
 C        -3.957757         2.012098        -2.184761
 O        -5.287106         2.052455        -1.489301
 H         1.339527        -0.019453        -1.733816
 H         1.339066         0.828376        -0.078085
 H         1.451919        -0.891243        -0.321770
 H        -3.439880        -1.034344         0.590191
 H        -1.701479         0.559934         2.250210
 H        -4.713486         1.061062         0.914481
 H        -3.436786         2.033572         0.611181
 H        -4.544226         0.093302        -1.372464
 H        -3.354245         2.893667        -1.868766
 H        -3.934040         1.817423        -3.293779
