19
Iteration:  2707charge 0 multiplicity 1
 C         0.990432        -0.048307        -0.680772
 C        -0.518625         0.027151        -0.462707
 C        -1.605288         0.008437        -0.024275
 C        -2.821001         0.014938         0.734150
 O        -2.514879         0.041988         2.215765
 C        -3.840230         1.133120         0.370262
 C        -4.334818         1.048337        -1.084217
 C        -4.048211         2.010014        -2.175839
 O        -5.276724         2.086673        -1.499651
 H         1.153072         0.107846        -1.767035
 H         1.540391         0.806446        -0.166463
 H         1.368530        -0.902544        -0.124771
 H        -3.382762        -0.905168         0.449744
 H        -1.552033         0.160000         2.332621
 H        -4.608529         0.965368         1.126105
 H        -3.411791         2.190521         0.493942
 H        -4.674008         0.035823        -1.421695
 H        -3.420757         2.925240        -1.999992
 H        -4.210638         1.815157        -3.222999
