19
Iteration:  2290charge 0 multiplicity 1
 C         1.526142        -0.280121         0.793912
 C         0.169734        -0.092940         0.109570
 C        -0.976572         0.095535        -0.191567
 C        -2.434726         0.253355        -0.513912
 O        -3.118654        -0.058386         0.818823
 C        -3.163251         1.522982        -1.024725
 C        -4.450270         1.816334        -0.355330
 C        -5.619046         1.030379        -0.679498
 O        -5.530438         2.223076        -1.414581
 H         1.501780        -1.202976         1.397801
 H         2.442054        -0.068301         0.190556
 H         1.479344         0.634595         1.416847
 H        -2.745412        -0.627638        -1.192941
 H        -2.783443        -0.828861         1.236087
 H        -2.381905         2.328318        -1.140072
 H        -3.377192         1.256280        -2.113812
 H        -4.367795         2.245323         0.621032
 H        -5.556467         0.128850        -1.293323
 H        -6.452071         0.951931        -0.018411
