19
Iteration:  3677charge 0 multiplicity 1
 C         1.394016        -0.100973         0.081699
 C        -0.020735        -0.064623         0.131058
 C        -1.226238        -0.062586         0.017276
 C        -2.725746         0.085995         0.028731
 O        -3.058870        -0.050255         1.451629
 C        -3.110165         1.423195        -0.485093
 C        -4.514124         1.885023        -0.565846
 C        -5.387089         0.951801        -1.260733
 O        -5.154609         2.356871        -1.794262
 H         1.838066        -1.077545         0.106411
 H         1.836142         0.419570        -0.884282
 H         1.898925         0.436535         0.922256
 H        -3.219263        -0.766998        -0.412055
 H        -2.539156        -0.865434         1.773157
 H        -2.446654         2.017525        -0.048212
 H        -2.804642         1.618931        -1.534094
 H        -4.703756         2.623348         0.183887
 H        -4.979225         0.067968        -1.841739
 H        -6.384992         0.803952        -0.899288
