19
Iteration:  3308charge 0 multiplicity 1
 C         1.412932        -0.004620        -0.309025
 C        -0.008309         0.108597        -0.074407
 C        -1.151856        -0.007611         0.373302
 C        -2.670629        -0.034808         0.267670
 O        -3.256300        -0.220290         1.570769
 C        -3.107388         1.244086        -0.349347
 C        -4.628045         1.459141        -0.588983
 C        -5.222891         1.241193        -1.881018
 O        -5.046137         2.549135        -1.386236
 H         2.093951         0.272678         0.581138
 H         1.713382        -1.075919        -0.621765
 H         1.813987         0.759482        -1.001854
 H        -3.018483        -0.856365        -0.374669
 H        -3.660615         0.576233         1.876014
 H        -2.726993         1.941956         0.346077
 H        -2.629375         1.499245        -1.276822
 H        -5.204358         1.165523         0.276936
 H        -4.724466         1.142948        -2.867476
 H        -6.298306         0.832088        -1.875342
