19
Iteration:  2655
 C         1.146005        -0.203665        -0.625873
 C        -0.145209        -0.022132        -0.158123
 C        -1.374141         0.244175         0.014258
 C        -2.690595         0.076492         0.542215
 O        -2.728914         0.052496         1.932373
 C        -3.714569         1.204499         0.238513
 C        -4.525631         1.079857        -0.957806
 C        -4.299257         1.820509        -2.167549
 O        -5.426238         2.187603        -1.340186
 H         1.271911        -0.286678        -1.734652
 H         1.677811         0.711485        -0.399249
 H         1.427116        -1.047454         0.026322
 H        -3.100077        -0.733687        -0.040796
 H        -2.910216        -0.858241         2.266163
 H        -4.413551         1.193988         1.186610
 H        -3.176454         2.304457         0.147794
 H        -5.067527         0.093799        -1.125770
 H        -3.541033         2.594307        -2.022388
 H        -4.439712         1.385766        -3.128282
