19
Iteration:   807
 C         1.664758        -0.204561         0.078987
 C         0.200858         0.067602         0.147858
 C        -1.061242         0.100219         0.180863
 C        -2.520416         0.011396        -0.088867
 O        -3.295883        -0.321311         1.056629
 C        -3.083171         1.411642        -0.647598
 C        -4.567897         1.564920        -0.439030
 C        -5.695178         1.268560        -1.450503
 O        -5.264351         2.569583        -1.172437
 H         2.234358         0.729864        -0.069753
 H         1.901564        -0.641593         1.045978
 H         1.827040        -0.835561        -0.802920
 H        -2.674168        -0.700815        -0.928745
 H        -2.893576        -1.027128         1.532994
 H        -2.615654         2.271935        -0.161004
 H        -2.982951         1.516497        -1.790154
 H        -4.971607         1.636756         0.509373
 H        -5.354806         0.824076        -2.333738
 H        -6.759796         1.215154        -1.265724
