19
Iteration:  2804charge 0 multiplicity 1
 C         0.379125         0.195179        -1.415882
 C        -0.723286         0.166877        -0.503330
 C        -1.628479         0.049601         0.316667
 C        -2.869542        -0.075140         1.024339
 O        -2.675753         0.205514         2.445743
 C        -4.027075         0.858404         0.382703
 C        -4.039496         0.973423        -1.138879
 C        -3.420550         1.970175        -1.955720
 O        -4.860405         2.043824        -1.672940
 H        -0.125527         0.489652        -2.371031
 H         1.176924         0.883936        -0.999149
 H         0.913898        -0.758281        -1.532500
 H        -3.201366        -1.165409         1.014450
 H        -3.337900        -0.380255         2.810743
 H        -4.983892         0.528051         0.751300
 H        -3.811918         1.738537         0.878934
 H        -4.065486         0.003035        -1.618081
 H        -2.871856         2.873164        -1.535181
 H        -3.140134         1.728132        -2.996630
