19
Iteration:   914charge 0 multiplicity 1
 C         1.237772         0.006879         0.550883
 C        -0.005217         0.052235        -0.173358
 C        -1.213884        -0.165712        -0.382354
 C        -2.638198         0.019087        -0.212494
 O        -2.954749        -0.221723         1.174959
 C        -3.037534         1.290459        -0.796206
 C        -4.438156         1.631075        -0.377875
 C        -5.589126         1.181570        -1.182881
 O        -5.108209         2.599529        -1.219318
 H         1.076981         0.794706         1.362351
 H         1.343270        -0.988621         1.061020
 H         2.243138         0.177257         0.063124
 H        -3.272519        -0.794972        -0.784561
 H        -2.142504        -0.289852         1.671429
 H        -2.235457         1.982246        -0.419126
 H        -3.186273         1.471352        -1.887181
 H        -4.703779         1.498080         0.603368
 H        -5.365288         0.671439        -2.113530
 H        -6.528176         0.844483        -0.712676
