19
Iteration:  1739
 C         0.607329         0.020118        -1.182089
 C        -0.603729         0.002186        -0.345844
 C        -1.608548        -0.212405         0.283337
 C        -2.902959         0.014406         1.019826
 O        -2.708399         0.518623         2.297705
 C        -3.840222         1.047659         0.321132
 C        -4.259816         0.883075        -1.123015
 C        -3.667666         1.762906        -2.163811
 O        -4.951269         2.178292        -1.559433
 H         0.828760         0.983730        -1.684796
 H         1.531995        -0.505934        -0.847143
 H         0.405555        -0.630251        -2.099706
 H        -3.506014        -0.972955         1.045592
 H        -1.834090         0.160030         2.639693
 H        -4.756926         1.156229         0.892379
 H        -3.262157         1.919755         0.368397
 H        -4.925169         0.048534        -1.364105
 H        -2.964654         2.518975        -1.982873
 H        -3.643856         1.552695        -3.203770
