19
Iteration:   706
 C         1.398002        -0.100990        -0.065764
 C        -0.013929        -0.251947        -0.142081
 C        -1.205166        -0.026679        -0.116998
 C        -2.646174         0.075344         0.049587
 O        -2.933851        -0.282984         1.422717
 C        -3.230146         1.645080        -0.035875
 C        -4.671328         1.555841        -0.440772
 C        -5.051605         1.243251        -1.806555
 O        -5.390437         2.577869        -1.355248
 H         1.625065         0.785266        -0.733182
 H         1.576827         0.144422         1.037431
 H         1.936316        -1.081139        -0.279060
 H        -3.165489        -0.440888        -0.778663
 H        -2.663549        -1.226305         1.638298
 H        -3.166561         2.141065         1.031040
 H        -2.383329         2.051662        -0.685322
 H        -5.415656         1.121187         0.309277
 H        -4.285010         1.158675        -2.599307
 H        -5.826829         0.547181        -2.059976
