19
Iteration:  4690
 C         0.897026        -0.505318        -0.634964
 C        -0.366575        -0.354578        -0.197302
 C        -1.517499         0.007770         0.100964
 C        -2.733236         0.274010         0.758230
 O        -2.573119         0.580242         2.122144
 C        -3.701525         1.316169         0.172579
 C        -4.421991         1.000996        -1.096524
 C        -4.172901         1.842198        -2.321061
 O        -5.325171         2.115124        -1.460989
 H         1.433367         0.460465        -0.681378
 H         1.564765        -1.036988         0.034170
 H         1.025684        -1.050442        -1.590835
 H        -3.368508        -0.636482         0.538905
 H        -2.069346         0.085574         2.696602
 H        -4.428128         1.353462         1.080930
 H        -3.074361         2.186900         0.068741
 H        -4.799571        -0.029161        -1.141459
 H        -3.369435         2.572807        -2.301380
 H        -4.338488         1.594974        -3.387458
