19
Iteration:  3889
 C         1.183513        -0.347127        -0.313450
 C        -0.143545         0.021668        -0.003559
 C        -1.300674        -0.086601         0.230097
 C        -2.702345         0.183587         0.422141
 O        -2.749869         0.294210         1.894112
 C        -3.251858         1.523102        -0.155351
 C        -4.521943         1.164251        -0.897803
 C        -4.916784         1.347349        -2.306876
 O        -5.379505         2.206120        -1.349147
 H         1.177369        -1.258984        -1.068058
 H         1.762386         0.522798        -0.848021
 H         1.898297        -0.655023         0.504392
 H        -3.563964        -0.570197         0.231638
 H        -2.122187         1.072069         2.138934
 H        -3.628404         2.015394         0.695437
 H        -2.578454         1.971450        -0.829791
 H        -5.020531         0.417831        -0.193502
 H        -4.200548         1.654576        -3.085112
 H        -5.806200         0.746128        -2.687886
