19
Iteration:  4370
 C         0.443962        -0.250292        -1.256644
 C        -0.719601         0.005330        -0.466587
 C        -1.697453        -0.028193         0.221015
 C        -2.789176         0.129005         1.077120
 O        -2.708993         0.729004         2.455742
 C        -3.847237         1.205359         0.357689
 C        -4.245822         0.949584        -0.970713
 C        -3.550314         1.499880        -2.103504
 O        -4.867178         1.983447        -1.803863
 H         0.534353         0.309208        -2.294665
 H         1.401434        -0.159388        -0.704072
 H         0.384218        -1.325084        -1.521222
 H        -3.259317        -0.841343         1.171314
 H        -2.028973         1.377997         2.470240
 H        -4.652497         1.300868         1.085274
 H        -3.370147         2.151203         0.552740
 H        -4.677620         0.061634        -1.288704
 H        -2.756999         2.248160        -1.904874
 H        -3.476942         0.947582        -3.012994
