19
Iteration:  4057
 C         1.217159        -0.326299        -0.648053
 C        -0.194217        -0.105096        -0.207002
 C        -1.336248         0.159527         0.116999
 C        -2.765544         0.244872         0.653327
 O        -2.922562         0.389409         1.996272
 C        -3.446697         1.549168         0.198180
 C        -4.661584         1.182665        -0.754863
 C        -4.469180         1.075477        -2.199420
 O        -5.221882         2.221082        -1.637534
 H         1.085359        -0.576637        -1.728574
 H         1.677704         0.667739        -0.638330
 H         1.799410        -1.082658         0.026057
 H        -3.324223        -0.658456         0.154255
 H        -2.335246        -0.114812         2.669777
 H        -3.750881         2.016414         1.137580
 H        -2.792780         2.070000        -0.347249
 H        -5.447071         0.502032        -0.302630
 H        -3.537382         1.267587        -2.634815
 H        -5.186051         0.385030        -2.714156
