19
Iteration:  1371
 C         0.806281        -0.115135        -1.041562
 C        -0.452256         0.115820        -0.220597
 C        -1.531431        -0.103163         0.243152
 C        -2.816011         0.034723         0.862940
 O        -2.754746         0.073925         2.328530
 C        -3.600524         1.357926         0.265395
 C        -4.338579         1.044186        -1.026031
 C        -4.022610         1.740337        -2.264015
 O        -5.170789         2.205895        -1.595843
 H         0.456357        -0.946424        -1.785814
 H         1.166665         0.656495        -1.796578
 H         1.626236        -0.657150        -0.479203
 H        -3.503536        -0.780913         0.610329
 H        -1.863415         0.362107         2.490103
 H        -4.410023         1.565918         1.002054
 H        -2.976146         2.258102         0.245485
 H        -4.830987         0.050934        -1.072279
 H        -3.285268         2.526967        -2.315456
 H        -4.105105         1.181211        -3.162465
