19
Iteration:  3093charge 0 multiplicity 1
 C         1.208665        -0.228204        -0.621436
 C        -0.272643         0.039605        -0.229036
 C        -1.447259         0.309095        -0.043082
 C        -2.756283         0.149572         0.633371
 O        -2.609168        -0.004791         2.078873
 C        -3.839331         1.294729         0.359974
 C        -4.619085         1.098645        -0.960266
 C        -4.188450         1.615292        -2.230990
 O        -5.308960         2.226137        -1.543633
 H         1.759722         0.709818        -0.324390
 H         1.418859        -1.031509         0.034758
 H         1.286090        -0.391661        -1.731254
 H        -3.304492        -0.691298         0.211173
 H        -2.265086        -0.951910         2.152927
 H        -4.648724         1.196633         1.139566
 H        -3.426321         2.321300         0.495048
 H        -5.347958         0.302957        -0.858895
 H        -3.308822         2.225919        -2.281308
 H        -4.491594         1.023817        -3.030828
