19
Iteration:   325
 C         1.473866        -0.193393         0.041272
 C         0.078410        -0.056343         0.137272
 C        -1.132370         0.062597         0.094109
 C        -2.562800         0.152256        -0.226449
 O        -3.267738        -0.315412         1.014808
 C        -3.021242         1.663936        -0.450212
 C        -4.531484         1.578082        -0.375933
 C        -5.511578         1.039738        -1.374032
 O        -5.216736         2.533474        -1.226463
 H         1.645217        -0.818153        -0.846769
 H         2.110116         0.704396        -0.120451
 H         1.832975        -0.629629         0.993378
 H        -2.749756        -0.542308        -1.067202
 H        -2.600208        -0.860568         1.469351
 H        -2.581095         2.207314         0.400974
 H        -2.713630         2.116806        -1.473599
 H        -5.047696         1.631552         0.696393
 H        -5.121353         0.720213        -2.397513
 H        -6.539995         0.616239        -1.163264
