19
Iteration:  1171charge 0 multiplicity 1
 C         1.262548        -0.156786        -0.206075
 C        -0.188069         0.053593        -0.094474
 C        -1.413040        -0.108991        -0.160751
 C        -2.818943         0.088326         0.359936
 O        -2.669295        -0.267575         1.711631
 C        -3.377445         1.601044        -0.011951
 C        -4.733833         1.492827        -0.593465
 C        -4.931637         1.194713        -1.933914
 O        -5.068834         2.530492        -1.580308
 H         1.419274        -1.169194         0.259704
 H         1.533690        -0.105707        -1.326299
 H         1.923716         0.558998         0.375078
 H        -3.541635        -0.720108        -0.082109
 H        -1.804301         0.031418         2.047152
 H        -3.121062         2.204812         0.912849
 H        -2.584104         1.856445        -0.753268
 H        -5.563142         1.170670         0.078850
 H        -4.136121         0.781275        -2.469565
 H        -5.903441         0.804123        -2.195499
