19
Iteration:  4141charge 0 multiplicity 1
 C         0.909338        -0.013123        -0.944753
 C        -0.421001        -0.010998        -0.346474
 C        -1.360616        -0.064721         0.375221
 C        -2.766399         0.196567         0.812258
 O        -2.925523         0.359970         2.223914
 C        -3.507124         1.470936         0.204973
 C        -4.577221         1.235630        -0.744085
 C        -4.443727         0.953212        -2.218745
 O        -4.772431         2.213736        -1.802988
 H         0.970963        -0.111262        -2.051830
 H         1.497537         0.812216        -0.643698
 H         1.413660        -0.867105        -0.637813
 H        -3.470476        -0.494693         0.329926
 H        -2.465809        -0.301067         2.678192
 H        -3.773279         2.007261         1.160942
 H        -2.672472         2.136576        -0.226452
 H        -5.605639         0.821832        -0.367118
 H        -3.471209         0.907693        -2.693407
 H        -5.239300         0.301347        -2.666435
