19
Iteration:  2521charge 0 multiplicity 1
 C         1.404383         0.075366        -0.333380
 C         0.000071        -0.066651        -0.209823
 C        -1.188370         0.001986         0.185960
 C        -2.593783        -0.030973         0.327326
 O        -3.220642        -0.308233         1.651357
 C        -3.236785         1.340489        -0.130643
 C        -4.680996         1.383420        -0.606873
 C        -5.020222         1.306077        -2.035152
 O        -5.189023         2.573307        -1.342544
 H         1.957974        -0.496573        -1.050172
 H         1.742009         1.093895        -0.562971
 H         1.834516        -0.039285         0.645675
 H        -3.030090        -0.769934        -0.332382
 H        -2.571577         0.150367         2.192209
 H        -3.232154         1.815189         0.908648
 H        -2.638826         2.106410        -0.830756
 H        -5.470523         1.210081         0.135652
 H        -4.272204         1.300444        -2.803573
 H        -5.979072         0.855023        -2.343672
