19
Iteration:   569charge 0 multiplicity 1
 C         1.285613         0.013719        -0.595858
 C        -0.126772        -0.130436        -0.224180
 C        -1.218145         0.028946         0.328209
 C        -2.637308        -0.024778         0.376367
 O        -3.316026        -0.127231         1.674667
 C        -3.127920         1.442916        -0.066413
 C        -4.560432         1.241474        -0.658650
 C        -4.836273         1.417609        -2.114482
 O        -5.188346         2.501645        -1.169417
 H         1.499897         0.494283        -1.545849
 H         1.751343         0.647199         0.138489
 H         1.842785        -0.897194        -0.715269
 H        -3.020667        -0.880578        -0.208876
 H        -2.846221        -0.559467         2.374406
 H        -3.209758         1.955993         0.855571
 H        -2.326708         1.899675        -0.577546
 H        -5.239210         0.519001        -0.218149
 H        -4.040080         1.648997        -2.854852
 H        -5.693671         0.903599        -2.591128
