19
Iteration:  2443
 C         1.474645         0.234532         0.016997
 C         0.031757         0.074112         0.101157
 C        -1.185644        -0.198984         0.009623
 C        -2.629461        -0.068437         0.036121
 O        -3.272034        -0.416228         1.293910
 C        -3.122332         1.348954        -0.501443
 C        -4.572171         1.669838        -0.409687
 C        -5.501491         1.158399        -1.402769
 O        -4.961115         2.541522        -1.523232
 H         1.877093        -0.678453        -0.373276
 H         1.746264         0.925926        -0.783273
 H         1.957537         0.308546         0.960115
 H        -3.046050        -0.762931        -0.726473
 H        -2.723354         0.121640         1.925213
 H        -2.570072         2.188432         0.091586
 H        -2.886280         1.483164        -1.667256
 H        -4.901285         1.753961         0.614142
 H        -5.094817         0.488378        -2.166979
 H        -6.568801         1.128832        -1.149379
