19
Iteration:  3160
 C         1.194875        -0.123984        -0.395496
 C        -0.191253         0.019939        -0.305177
 C        -1.384829         0.089228        -0.080627
 C        -2.721075         0.073436         0.514982
 O        -2.765899        -0.038378         1.976381
 C        -3.522164         1.424158         0.110947
 C        -4.597949         1.094281        -0.863567
 C        -4.468893         1.523750        -2.282470
 O        -5.278471         2.275920        -1.285346
 H         1.701749         0.636491         0.249460
 H         1.373970        -1.136758         0.047767
 H         1.801675        -0.046679        -1.361352
 H        -3.219935        -0.846156         0.135615
 H        -3.633253         0.352662         2.148714
 H        -4.059338         1.843019         1.064512
 H        -2.902888         2.310831        -0.258738
 H        -5.242629         0.201089        -0.608208
 H        -3.740175         2.199648        -2.511352
 H        -5.062068         1.063015        -3.070925
