19
Iteration:   675charge 0 multiplicity 1
 C         1.359813        -0.157114        -0.137278
 C        -0.041172        -0.043446        -0.387691
 C        -1.221384         0.093155        -0.101883
 C        -2.655251         0.141423         0.224607
 O        -3.052196        -0.277337         1.577541
 C        -3.275617         1.535276         0.020857
 C        -4.751792         1.332767        -0.538948
 C        -5.006706         1.297097        -1.955373
 O        -5.110937         2.522218        -1.248260
 H         1.967512         0.524869        -0.760329
 H         1.532743         0.151303         0.908186
 H         1.753937        -1.181708        -0.153778
 H        -3.294699        -0.457680        -0.466771
 H        -2.696176        -1.099155         1.881612
 H        -3.218912         2.371610         0.758899
 H        -2.678776         1.842803        -0.899260
 H        -5.528327         0.888788         0.140840
 H        -4.148490         1.275093        -2.629420
 H        -5.968351         0.972776        -2.274894
