19
Iteration:  1611
 C         0.028625        -0.038280        -1.639588
 C        -0.844010         0.128562        -0.401873
 C        -1.681495         0.146438         0.438647
 C        -2.925849         0.132326         1.155983
 O        -2.724269         0.155301         2.627945
 C        -3.915995         1.155268         0.446643
 C        -3.805804         0.963224        -1.037629
 C        -3.320532         1.932160        -2.088975
 O        -4.743181         1.815257        -1.911270
 H        -0.296621         0.458136        -2.521134
 H         1.017800         0.321369        -1.483028
 H         0.152263        -1.068760        -1.878017
 H        -3.377131        -0.915223         1.108373
 H        -2.083566         0.854979         2.679961
 H        -5.018315         0.955800         0.687895
 H        -3.573383         2.178412         0.670361
 H        -3.856234        -0.103726        -1.274215
 H        -3.019782         2.878666        -1.709029
 H        -2.865227         1.455523        -2.933393
