19
Iteration:   263charge 0 multiplicity 1
 C         1.587251        -0.307542         0.334402
 C         0.184664         0.084972         0.040250
 C        -1.028364         0.127056         0.008011
 C        -2.515002         0.127083        -0.270839
 O        -3.066422        -0.547886         0.835256
 C        -3.057159         1.507985        -0.544304
 C        -4.621341         1.720801        -0.319548
 C        -5.735112         1.182862        -1.132468
 O        -5.326119         2.587054        -1.312792
 H         1.720173        -1.322428        -0.082254
 H         2.387587         0.321706        -0.051514
 H         1.710745        -0.395161         1.442142
 H        -2.726932        -0.454450        -1.255879
 H        -3.873927        -0.113139         1.170643
 H        -2.545930         2.327586         0.041607
 H        -2.907144         1.592134        -1.643064
 H        -4.895957         2.042209         0.628784
 H        -5.627623         0.651211        -2.116840
 H        -6.729442         0.996190        -0.633005
