19
Iteration:  1116charge 0 multiplicity 1
 C         1.473567        -0.134085        -0.203461
 C        -0.012877        -0.093869        -0.203825
 C        -1.187260        -0.055533         0.057612
 C        -2.667595         0.178827         0.204102
 O        -3.196846        -0.238728         1.539279
 C        -3.246331         1.612399        -0.184798
 C        -4.701527         1.563657        -0.474048
 C        -5.164580         1.056768        -1.775994
 O        -5.074035         2.483932        -1.448815
 H         1.768129        -0.910209         0.564107
 H         1.985950        -0.497930        -1.155508
 H         1.875866         0.850413         0.156567
 H        -3.186569        -0.624384        -0.505564
 H        -2.611754         0.184146         2.154361
 H        -2.821563         2.267754         0.647614
 H        -2.571187         1.803009        -1.090221
 H        -5.445937         1.635662         0.369879
 H        -4.411616         0.691162        -2.468373
 H        -6.169424         0.729940        -1.895710
