19
Iteration:   223charge 0 multiplicity 1
 C         1.544076        -0.123854         0.503084
 C         0.106069        -0.295728         0.096837
 C        -1.032488         0.016517        -0.311756
 C        -2.502019         0.134949        -0.435039
 O        -3.057569        -0.350692         0.800609
 C        -3.080364         1.567716        -0.493742
 C        -4.627379         1.741468        -0.244552
 C        -5.757502         1.176979        -1.039127
 O        -5.244323         2.531386        -1.309049
 H         2.145201        -1.033285         0.445601
 H         1.948371         0.649188        -0.146986
 H         1.654752         0.192537         1.532452
 H        -2.718365        -0.492592        -1.272971
 H        -3.391849        -1.234351         0.557792
 H        -2.499393         2.176602         0.174783
 H        -2.828955         2.111998        -1.363337
 H        -4.886740         1.951068         0.855950
 H        -5.744746         0.554896        -1.861508
 H        -6.644934         1.206455        -0.456359
