19
Iteration:  3874
 C         1.224065        -0.311680        -0.392310
 C        -0.145044         0.003210         0.022040
 C        -1.313817        -0.075745         0.187101
 C        -2.687688         0.192561         0.505829
 O        -2.864729         0.299739         1.931907
 C        -3.186346         1.441222        -0.243771
 C        -4.582093         1.157421        -0.842611
 C        -4.866636         1.284694        -2.299711
 O        -5.419076         2.289533        -1.322149
 H         1.248629        -1.165663        -0.996453
 H         1.775696         0.467266        -0.920849
 H         1.785486        -0.559858         0.481751
 H        -3.147638        -0.762721         0.151088
 H        -2.151090         0.883612         2.157741
 H        -3.128639         2.322508         0.441230
 H        -2.373132         1.940461        -0.972532
 H        -5.192079         0.407318        -0.366122
 H        -4.039595         1.791235        -2.822256
 H        -5.553405         0.545018        -2.863691
