19
Iteration:  4116
 C         0.957710        -0.119244        -0.897144
 C        -0.338295         0.007530        -0.223731
 C        -1.428303         0.159848         0.319006
 C        -2.804299         0.117530         0.849264
 O        -2.840647         0.255979         2.335862
 C        -3.368356         1.437648         0.094678
 C        -4.641654         1.297508        -0.835628
 C        -4.455780         0.941308        -2.243070
 O        -4.993223         2.298233        -1.838506
 H         0.908676        -0.291188        -1.980279
 H         1.614554         0.809357        -0.721589
 H         1.595056        -0.996023        -0.580214
 H        -3.524728        -0.564916         0.372946
 H        -2.295401        -0.449486         2.677657
 H        -3.444085         2.045831         1.023326
 H        -2.490948         2.057427        -0.387956
 H        -5.458644         0.810356        -0.390789
 H        -3.390579         0.861794        -2.723583
 H        -5.218383         0.349858        -2.726459
