19
Iteration:  1823
 C         0.899648        -0.266797        -0.704282
 C        -0.503596         0.156722        -0.386954
 C        -1.698303         0.227002        -0.113290
 C        -2.838259         0.156007         0.762079
 O        -2.350218         0.115843         2.129239
 C        -3.966647         1.255960         0.443961
 C        -4.620812         1.054451        -0.857529
 C        -3.943297         1.501569        -2.123668
 O        -5.010047         2.217874        -1.754029
 H         1.585045         0.488291        -0.271890
 H         1.105087        -1.118807        -0.038364
 H         1.005213        -0.579885        -1.760834
 H        -3.033518        -0.900611         0.621063
 H        -2.218759         0.969804         2.520437
 H        -4.670208         1.043047         1.289003
 H        -3.491384         2.334766         0.601097
 H        -5.256639         0.197271        -0.833771
 H        -2.937652         2.024551        -2.142710
 H        -4.251628         0.781521        -2.969047
