19
Iteration:  2274charge 0 multiplicity 1
 C         1.457655        -0.275376         0.775685
 C         0.097414        -0.141121         0.219031
 C        -0.931771         0.239854        -0.222874
 C        -2.422960         0.133752        -0.488740
 O        -3.013304         0.007571         0.767794
 C        -3.104910         1.478652        -1.055604
 C        -4.508257         1.791204        -0.418282
 C        -5.659634         0.999927        -0.669454
 O        -5.555015         2.253548        -1.375203
 H         1.507287        -1.166304         1.411360
 H         2.100659        -0.317505        -0.090985
 H         1.890635         0.393849         1.514405
 H        -2.587973        -0.717212        -1.156820
 H        -2.808106        -0.886908         1.041578
 H        -2.407467         2.313501        -0.611379
 H        -3.213326         1.582928        -2.123124
 H        -4.569100         2.556010         0.387100
 H        -5.482676         0.059836        -1.234806
 H        -6.469945         0.882310         0.135746
