19
Iteration:  4494charge 0 multiplicity 1
 C         0.377285        -0.453657        -1.313386
 C        -0.665848        -0.130913        -0.400668
 C        -1.625710         0.049329         0.382071
 C        -2.930404         0.240042         1.144351
 O        -2.747035         0.809338         2.500415
 C        -3.673504         1.186560         0.305046
 C        -3.843740         0.989123        -1.159758
 C        -3.740268         2.154601        -2.104628
 O        -5.058573         1.479853        -1.791683
 H         0.592886         0.353720        -2.048332
 H         1.310466        -0.736094        -0.785328
 H         0.080318        -1.300379        -2.004751
 H        -3.451251        -0.732998         1.185641
 H        -2.036553         0.262206         2.852115
 H        -4.667369         1.443462         0.732779
 H        -3.125379         2.068468         0.376424
 H        -3.585757         0.073164        -1.758162
 H        -3.626880         3.092422        -1.687917
 H        -3.367016         2.016531        -3.148136
