19
Iteration:    64charge 0 multiplicity 1
 C         1.598031        -0.129803         0.161221
 C         0.170814         0.096837         0.135969
 C        -1.053299         0.082228        -0.007433
 C        -2.553986        -0.003840        -0.225687
 O        -3.115304        -0.811665         0.926784
 C        -3.215400         1.346614        -0.548994
 C        -4.611418         1.721496        -0.273035
 C        -5.631960         1.437696        -1.366234
 O        -5.198025         2.753921        -1.137076
 H         1.776960        -1.073918         0.706561
 H         1.985666        -0.093214        -0.888263
 H         2.168090         0.552975         0.820509
 H        -2.705369        -0.617944        -1.145316
 H        -4.040222        -0.608657         1.023887
 H        -2.659239         2.189391        -0.015565
 H        -2.843688         1.642484        -1.623477
 H        -5.031015         1.830743         0.753599
 H        -5.315388         0.950884        -2.405373
 H        -6.745157         1.124344        -1.111761
