19
Iteration:  2475
 C         1.312522         0.164099        -0.179939
 C        -0.029169         0.054869         0.153028
 C        -1.274158        -0.013366         0.072103
 C        -2.651046        -0.117788         0.118993
 O        -3.132876        -0.427104         1.469185
 C        -3.121553         1.369243        -0.367975
 C        -4.587568         1.591896        -0.451236
 C        -5.345322         1.183992        -1.736006
 O        -4.996514         2.586032        -1.450938
 H         1.510309        -0.694605        -0.787810
 H         1.626341         1.035262        -0.784578
 H         2.045367         0.224825         0.597269
 H        -3.057840        -0.787527        -0.593473
 H        -2.396827        -0.144710         2.005366
 H        -2.602438         2.018602         0.388074
 H        -2.528301         1.556122        -1.330627
 H        -5.054950         1.434168         0.507642
 H        -4.692180         0.669684        -2.492642
 H        -6.423154         0.938658        -1.842428
