19
Iteration:  1136charge 0 multiplicity 1
 C         1.301820        -0.147801        -0.166556
 C        -0.119776        -0.012406        -0.130308
 C        -1.347210         0.081965        -0.131725
 C        -2.740198         0.072581         0.231278
 O        -2.993289        -0.219514         1.588270
 C        -3.217530         1.497450        -0.098193
 C        -4.606977         1.515077        -0.459641
 C        -5.057920         1.114417        -1.792978
 O        -5.037189         2.490304        -1.521630
 H         1.685668        -1.088490         0.384311
 H         1.681818        -0.412472        -1.224446
 H         1.847696         0.787007         0.198380
 H        -3.457862        -0.646399        -0.250519
 H        -2.349007         0.346789         2.071245
 H        -2.985850         2.151610         0.799421
 H        -2.762963         1.998207        -1.038701
 H        -5.415106         1.231493         0.199525
 H        -4.234282         0.697981        -2.431564
 H        -6.063569         0.739694        -1.937110
