19
Iteration:   247
 C         1.560970        -0.254476         0.407881
 C         0.162736        -0.130656         0.075235
 C        -0.971566         0.178423        -0.187624
 C        -2.452634         0.132829        -0.300611
 O        -3.081692        -0.492745         0.855756
 C        -3.074820         1.556274        -0.521982
 C        -4.594078         1.670561        -0.362779
 C        -5.863013         1.259397        -1.108370
 O        -5.271724         2.503235        -1.293580
 H         2.019857        -1.217207         0.145969
 H         2.071602         0.574519        -0.130223
 H         1.742554        -0.121041         1.475428
 H        -2.550153        -0.565556        -1.102932
 H        -4.005760        -0.201260         0.622560
 H        -2.629902         2.207411         0.235434
 H        -2.749954         2.122560        -1.423098
 H        -4.833677         1.861320         0.775404
 H        -5.860586         0.497797        -1.903491
 H        -6.749344         1.310327        -0.469307
