19
Iteration:   635
 C         1.329854        -0.180435        -0.445022
 C        -0.045945         0.158996         0.068351
 C        -1.240373         0.092233         0.090901
 C        -2.661198        -0.128556         0.309867
 O        -2.978978        -0.226534         1.637382
 C        -3.304904         1.355161        -0.056470
 C        -4.735276         1.371712        -0.591101
 C        -4.972708         1.420984        -2.113335
 O        -5.174021         2.622120        -1.285887
 H         1.501384         0.352434        -1.369066
 H         2.110255         0.063872         0.243377
 H         1.356748        -1.240076        -0.640081
 H        -2.946429        -0.946023        -0.342951
 H        -2.499419        -1.020484         2.013144
 H        -3.153742         1.823365         0.841502
 H        -2.822082         1.884172        -0.813261
 H        -5.549224         1.010448        -0.079386
 H        -4.145406         1.427542        -2.833013
 H        -5.834416         0.840884        -2.522936
