19
Iteration:    78
 C         1.588284        -0.069469         0.216714
 C         0.103507        -0.090294         0.134426
 C        -1.107709         0.002393         0.033194
 C        -2.488320        -0.026520        -0.205978
 O        -3.062066        -0.768221         0.808637
 C        -3.068263         1.486650        -0.523897
 C        -4.649107         1.755871        -0.350572
 C        -5.724882         1.356035        -1.306077
 O        -5.247159         2.763643        -1.141039
 H         2.018757        -1.009876         0.554649
 H         2.023191         0.059517        -0.770710
 H         1.915609         0.794103         0.800956
 H        -2.684778        -0.579360        -1.097843
 H        -3.775788        -0.260028         1.304525
 H        -2.382720         2.179769        -0.058883
 H        -2.962337         1.479123        -1.580399
 H        -4.917785         1.828469         0.653078
 H        -5.394535         0.934332        -2.234856
 H        -6.726984         1.254420        -0.971216
