19
Iteration:  1797
 C         0.913425        -0.184226        -0.797515
 C        -0.578879        -0.040032        -0.526045
 C        -1.644397         0.108194         0.015141
 C        -2.904092         0.136100         0.770413
 O        -2.394525         0.255515         2.258155
 C        -4.028241         1.168754         0.502207
 C        -4.569961         1.060411        -0.994938
 C        -3.742725         1.484948        -2.157968
 O        -5.062316         2.260078        -1.673245
 H         1.387112         0.773443        -0.645865
 H         1.517818        -0.816605        -0.152295
 H         1.011363        -0.459632        -1.833796
 H        -3.119222        -0.900195         0.658405
 H        -2.181503         1.182001         2.409850
 H        -4.811019         0.923323         1.305105
 H        -3.668793         2.206314         0.748524
 H        -5.221783         0.119429        -1.025656
 H        -2.866735         2.211221        -2.080965
 H        -4.065668         1.293405        -3.206214
