19
Iteration:  3118
 C         1.145267        -0.210242        -0.498403
 C        -0.267469         0.047955        -0.149464
 C        -1.419351         0.219486         0.066978
 C        -2.722319         0.087645         0.547359
 O        -2.527964        -0.131112         1.971155
 C        -3.752430         1.365845         0.341529
 C        -4.657702         1.183127        -0.957957
 C        -4.310137         1.625797        -2.314199
 O        -5.381260         2.250340        -1.521706
 H         1.760043         0.616624        -0.128844
 H         1.286979        -1.155436         0.112846
 H         1.151063        -0.255400        -1.613483
 H        -3.260644        -0.733002         0.092308
 H        -1.714500         0.464154         2.155434
 H        -4.317864         1.508242         1.170179
 H        -3.132494         2.261092         0.227115
 H        -5.231064         0.235958        -0.858336
 H        -3.341175         1.969459        -2.515139
 H        -4.838793         0.936201        -2.990516
