19
Iteration:  2785charge 0 multiplicity 1
 C         0.487502         0.226024        -1.255426
 C        -0.664152         0.050336        -0.421277
 C        -1.668663        -0.007036         0.276023
 C        -2.934199        -0.121162         0.937339
 O        -2.566482         0.202793         2.277213
 C        -3.927192         0.917662         0.438892
 C        -4.133373         0.979422        -1.109694
 C        -3.561179         2.064568        -1.965720
 O        -4.925723         2.013765        -1.699382
 H         0.223383         0.298088        -2.342267
 H         1.205481         0.867644        -0.728353
 H         1.067126        -0.733648        -1.304320
 H        -3.398155        -1.136579         0.820389
 H        -3.204979         0.358825         2.951609
 H        -4.861355         0.618333         0.896228
 H        -3.672584         1.898201         0.913118
 H        -4.439700        -0.020738        -1.560248
 H        -2.979916         2.797267        -1.435559
 H        -3.226859         1.855526        -2.979792
