19
Iteration:  3503charge 0 multiplicity 1
 C         1.460296        -0.381081         0.582424
 C         0.161326        -0.016864         0.113229
 C        -1.011003         0.134549         0.016302
 C        -2.477640         0.243875        -0.362208
 O        -3.156839         0.053227         0.911802
 C        -3.010015         1.541375        -0.899779
 C        -4.505465         1.752484        -0.486657
 C        -5.635043         0.961084        -0.804610
 O        -5.420317         2.198599        -1.506393
 H         1.401823        -1.119019         1.299325
 H         2.336416        -0.760798         0.011067
 H         1.952065         0.436008         1.053759
 H        -2.692736        -0.593513        -1.080210
 H        -3.667346        -0.703719         0.663397
 H        -2.448886         2.277779        -0.169141
 H        -2.957168         1.652821        -2.010809
 H        -4.555280         2.416400         0.361635
 H        -5.501947         0.023229        -1.281243
 H        -6.421081         1.117198        -0.003838
