19
Iteration:  4377charge 0 multiplicity 1
 C         0.447799        -0.264449        -1.296373
 C        -0.712028        -0.012396        -0.477630
 C        -1.686042        -0.055557         0.263129
 C        -2.826667         0.208343         1.138343
 O        -2.726433         0.685112         2.385283
 C        -3.796300         1.201477         0.479651
 C        -4.190081         0.966817        -0.966351
 C        -3.530051         1.567583        -2.109467
 O        -4.911429         1.942770        -1.852682
 H         0.402309         0.360178        -2.132203
 H         1.309452        -0.092185        -0.590456
 H         0.311334        -1.312600        -1.563398
 H        -3.373121        -0.768022         1.178539
 H        -2.039137         1.389297         2.163113
 H        -4.690387         1.186995         1.118873
 H        -3.327999         2.285096         0.510437
 H        -4.548386        -0.078133        -1.273239
 H        -2.868439         2.394122        -1.985747
 H        -3.436707         0.843264        -3.040123
