19
Iteration:  2101charge 0 multiplicity 1
 C         1.446229        -0.113919        -0.089336
 C         0.040111         0.023708        -0.122246
 C        -1.184858         0.128323         0.196888
 C        -2.670289         0.145688         0.174655
 O        -3.052513        -0.050812         1.606440
 C        -3.175933         1.401075        -0.472288
 C        -4.599358         1.559855        -0.539309
 C        -5.445370         0.966546        -1.656239
 O        -5.073995         2.402640        -1.536228
 H         1.744301        -0.385731         0.937366
 H         1.911945        -0.842133        -0.789663
 H         1.979940         0.793283        -0.462964
 H        -2.890753        -0.736333        -0.439968
 H        -3.692781        -0.818927         1.665585
 H        -2.839065         2.301773         0.124468
 H        -2.610796         1.465738        -1.372255
 H        -5.011019         1.581408         0.501887
 H        -4.959943         0.337719        -2.414981
 H        -6.524182         0.941548        -1.515237
