19
Iteration:  3744charge 0 multiplicity 1
 C         1.363685        -0.094842        -0.266613
 C        -0.018663        -0.065904        -0.043675
 C        -1.192853        -0.030989         0.302914
 C        -2.634306         0.014860         0.260967
 O        -3.216642         0.217453         1.681731
 C        -3.073610         1.298711        -0.401593
 C        -4.652651         1.521717        -0.565454
 C        -5.299513         1.041410        -1.751212
 O        -5.020864         2.454247        -1.605915
 H         1.794002        -1.081412        -0.540122
 H         1.805940         0.617490        -1.130039
 H         1.942502         0.245166         0.625033
 H        -3.047457        -0.891707        -0.248641
 H        -2.991695        -0.582001         2.132616
 H        -2.790864         2.069482         0.197775
 H        -2.569887         1.283962        -1.392528
 H        -5.151453         1.690136         0.355147
 H        -4.755084         0.584836        -2.645722
 H        -6.338319         0.704916        -1.723110
