19
Iteration:  1157charge 0 multiplicity 1
 C         1.218718        -0.183666        -0.171235
 C        -0.212045         0.098529        -0.044594
 C        -1.405446        -0.044087        -0.210513
 C        -2.754758         0.104613         0.272687
 O        -2.764170        -0.273112         1.699980
 C        -3.228278         1.484315        -0.066404
 C        -4.728089         1.596218        -0.488287
 C        -4.992781         1.046098        -1.970098
 O        -5.030202         2.527583        -1.505523
 H         1.636534        -1.189654         0.165287
 H         1.489979        -0.215047        -1.280616
 H         1.832055         0.676868         0.223680
 H        -3.472064        -0.582384        -0.156261
 H        -1.999043         0.254803         2.060544
 H        -3.302081         2.148925         0.775695
 H        -2.788616         2.073250        -0.903688
 H        -5.464248         1.546228         0.316761
 H        -4.070713         1.040836        -2.623889
 H        -5.910811         0.540182        -2.282933
