19
Iteration:  4301charge 0 multiplicity 1
 C         0.674398        -0.145763        -1.209484
 C        -0.551095        -0.060049        -0.366073
 C        -1.676901         0.130080         0.108129
 C        -2.900176         0.130099         1.013862
 O        -2.618044         0.573984         2.356467
 C        -4.053429         1.230842         0.518109
 C        -4.550985         1.087986        -0.866152
 C        -3.709557         1.121565        -2.167373
 O        -4.622200         2.225155        -1.900403
 H         0.409527         0.326557        -2.166833
 H         1.532832         0.304372        -0.583920
 H         0.786911        -1.258058        -1.340214
 H        -3.279903        -0.885917         1.184736
 H        -1.710052         0.780107         2.457625
 H        -4.911974         1.323903         1.171528
 H        -3.618357         2.194921         0.910588
 H        -5.442663         0.487209        -0.956988
 H        -2.628275         1.332226        -2.184337
 H        -4.057967         0.279116        -2.888119
