19
Iteration:  2788charge 0 multiplicity 1
 C         0.458180         0.216654        -1.266387
 C        -0.671479         0.065595        -0.430210
 C        -1.675974         0.003527         0.296824
 C        -2.906053        -0.139711         0.949767
 O        -2.581299         0.208899         2.280474
 C        -3.925238         0.905853         0.442778
 C        -4.118831         0.976983        -1.095511
 C        -3.528503         2.069232        -1.973102
 O        -4.923344         2.011695        -1.707748
 H         0.263712         0.334671        -2.328567
 H         1.157282         0.915513        -0.814176
 H         1.000405        -0.740577        -1.379549
 H        -3.300722        -1.126161         0.800229
 H        -3.233368         0.254118         3.024243
 H        -4.960517         0.565561         0.851208
 H        -3.745412         2.003421         0.880857
 H        -4.480223         0.023345        -1.540962
 H        -2.919349         2.761700        -1.440223
 H        -3.269431         1.886460        -3.027474
