19
Iteration:   124charge 0 multiplicity 1
 C         1.460953         0.022212         0.384995
 C         0.109730        -0.119997         0.070111
 C        -1.080345        -0.156939        -0.219362
 C        -2.570491         0.036270        -0.404452
 O        -3.344379        -0.378331         0.781675
 C        -2.929758         1.485855        -0.546646
 C        -4.509045         1.691408        -0.218832
 C        -5.581961         1.192281        -1.116100
 O        -5.197522         2.621221        -1.149363
 H         1.910950        -0.947691         0.643247
 H         1.998841         0.405389        -0.471795
 H         1.603321         0.730816         1.204348
 H        -2.933638        -0.468072        -1.298487
 H        -3.028303        -1.311077         0.924142
 H        -2.304998         2.143084         0.089055
 H        -2.805678         1.810693        -1.551912
 H        -4.735323         1.847924         0.851920
 H        -5.285679         0.619581        -1.918715
 H        -6.539790         1.062457        -0.739271
