19
Iteration:  3388
 C         1.469988         0.024620         0.253297
 C         0.051787        -0.041169        -0.125621
 C        -1.166527        -0.136683         0.023251
 C        -2.690064         0.011739        -0.011165
 O        -3.065525        -0.089503         1.369303
 C        -3.061730         1.453431        -0.545312
 C        -4.594180         1.651518        -0.479724
 C        -5.514548         1.063255        -1.415332
 O        -5.099180         2.472450        -1.538206
 H         1.492192        -0.335909         1.327294
 H         1.989195        -0.663861        -0.358869
 H         1.938578         0.979282        -0.040267
 H        -3.327293        -0.670978        -0.600106
 H        -3.481652        -0.924398         1.526865
 H        -2.550374         2.234887        -0.113916
 H        -2.848899         1.362162        -1.596321
 H        -4.932651         1.845950         0.583751
 H        -5.062146         0.384234        -2.170119
 H        -6.506285         0.940676        -0.998316
