19
Iteration:  3367charge 0 multiplicity 1
 C         1.445812         0.028438         0.038662
 C         0.044126        -0.111951         0.089415
 C        -1.162192        -0.046191         0.043742
 C        -2.621113         0.008044         0.047056
 O        -3.141061        -0.137667         1.427292
 C        -3.096680         1.315492        -0.513802
 C        -4.580290         1.681730        -0.470521
 C        -5.474951         1.130836        -1.543086
 O        -5.132978         2.507525        -1.547337
 H         1.703518        -0.026496         1.094656
 H         1.992731        -0.606727        -0.573247
 H         1.567165         1.038109        -0.392630
 H        -3.061189        -0.871932        -0.437906
 H        -2.748468        -0.958924         1.879870
 H        -2.563237         2.026083         0.096773
 H        -2.727981         1.466652        -1.538348
 H        -5.093112         1.947651         0.506245
 H        -4.832158         0.695732        -2.311533
 H        -6.505892         0.891700        -1.444960
