19
Iteration:  2508charge 0 multiplicity 1
 C         1.448874         0.148105        -0.290989
 C         0.012139        -0.026894        -0.152819
 C        -1.184610        -0.103469         0.167212
 C        -2.694124         0.005687         0.306125
 O        -3.184353        -0.382971         1.612010
 C        -3.172681         1.469772        -0.154792
 C        -4.711434         1.443934        -0.578219
 C        -5.183794         1.283716        -2.017271
 O        -5.088479         2.543101        -1.362790
 H         1.712977        -0.672410        -0.924546
 H         1.742869         1.143830        -0.669961
 H         1.920855        -0.115861         0.662369
 H        -3.080999        -0.760653        -0.310115
 H        -2.638276        -0.160832         2.401344
 H        -3.014395         2.266324         0.617653
 H        -2.491952         1.705257        -1.040929
 H        -5.356610         1.025122         0.182199
 H        -4.381088         1.001516        -2.723915
 H        -6.220445         0.943196        -2.264623
