19
Iteration:  2621
 C         1.325066        -0.208663        -0.609131
 C        -0.078912        -0.017446        -0.279718
 C        -1.240810         0.181981         0.171642
 C        -2.696322         0.186347         0.609475
 O        -2.881997        -0.179136         1.946496
 C        -3.701309         1.433743         0.222391
 C        -4.570805         1.093457        -0.953423
 C        -4.540019         1.742181        -2.298652
 O        -5.420834         2.243186        -1.334339
 H         1.687351        -0.714225        -1.511447
 H         1.902693         0.670866        -0.277679
 H         1.723514        -0.942051         0.117413
 H        -3.107249        -0.669498         0.066959
 H        -2.198457        -0.868796         2.208019
 H        -4.185939         1.783913         1.213501
 H        -2.966410         2.370604        -0.089538
 H        -5.237115         0.178872        -0.893707
 H        -3.774189         2.501395        -2.515083
 H        -4.966757         1.316563        -3.185013
