19
Iteration:  4343charge 0 multiplicity 1
 C         0.546548        -0.232088        -1.271767
 C        -0.701461        -0.037343        -0.428387
 C        -1.671142         0.143926         0.307244
 C        -2.912987         0.269881         1.135055
 O        -2.592845         0.642476         2.402464
 C        -4.011245         1.177653         0.319618
 C        -4.391543         0.827123        -1.068083
 C        -3.633680         1.345864        -2.172675
 O        -4.680628         2.108583        -1.654355
 H         0.602040         0.255506        -2.170507
 H         1.506883        -0.012945        -0.756940
 H         0.664029        -1.304623        -1.523680
 H        -3.384826        -0.742113         1.051114
 H        -1.734785         1.045582         2.357803
 H        -4.861579         1.324241         1.029541
 H        -3.554825         2.211173         0.243600
 H        -5.160772         0.070037        -1.496601
 H        -2.609273         1.718872        -1.991255
 H        -3.766818         1.078856        -3.272218
