19
Iteration:  3918
 C         1.319287        -0.388344        -0.266310
 C        -0.095125        -0.197429        -0.106907
 C        -1.258615         0.084725        -0.025824
 C        -2.658723         0.285258         0.515595
 O        -2.758968         0.302277         2.061639
 C        -3.407870         1.453199        -0.086800
 C        -4.633071         1.116089        -0.906217
 C        -4.887461         1.349642        -2.374882
 O        -5.435331         2.265794        -1.394921
 H         1.620575        -1.126860        -0.926681
 H         1.863423         0.487024        -0.615130
 H         1.864901        -0.671627         0.588797
 H        -3.336257        -0.544609         0.476973
 H        -1.964095         0.745566         2.374478
 H        -3.739757         2.222822         0.672067
 H        -2.676306         2.097018        -0.807127
 H        -5.241823         0.403808        -0.356116
 H        -4.017509         1.637064        -2.960121
 H        -5.806816         0.818971        -2.822198
