19
Iteration:  2548
 C         1.364396         0.014406        -0.429163
 C        -0.031206        -0.051493        -0.112518
 C        -1.259920         0.057648         0.126613
 C        -2.711108         0.055820         0.365123
 O        -3.071212        -0.299058         1.694638
 C        -3.338441         1.448971        -0.051000
 C        -4.722653         1.250116        -0.660188
 C        -4.769857         1.416722        -2.151448
 O        -5.220560         2.432013        -1.234428
 H         1.620653        -0.682247        -1.270953
 H         1.857112         0.994881        -0.582026
 H         1.978037        -0.355941         0.444638
 H        -3.276860        -0.635720        -0.337438
 H        -2.818003         0.519612         2.153867
 H        -3.304780         2.049665         0.840638
 H        -2.809998         2.002829        -0.743805
 H        -5.521776         0.692811        -0.168057
 H        -3.829389         1.544558        -2.749721
 H        -5.602098         1.017949        -2.720974
