19
Iteration:  2065charge 0 multiplicity 1
 C         1.474680        -0.016016        -0.439651
 C        -0.033786         0.128233        -0.034608
 C        -1.160167        -0.054871         0.303391
 C        -2.656658         0.038459         0.386616
 O        -3.104237        -0.045609         1.793172
 C        -3.216290         1.263289        -0.297276
 C        -4.628972         1.449960        -0.647805
 C        -5.231150         1.077657        -1.889002
 O        -5.076383         2.499169        -1.551146
 H         2.099449        -0.017346         0.398697
 H         1.565444        -0.850655        -1.040864
 H         1.736046         0.875097        -0.884502
 H        -3.226780        -0.788272        -0.122905
 H        -4.061025         0.283557         1.790125
 H        -2.891334         2.127873         0.351737
 H        -2.693599         1.326399        -1.274020
 H        -5.275628         1.394254         0.215918
 H        -4.650958         0.552948        -2.672055
 H        -6.269047         0.795580        -1.938901
