19
Iteration:  1845charge 0 multiplicity 1
 C         0.885949        -0.269653        -0.658914
 C        -0.435949         0.189806        -0.330306
 C        -1.624890         0.357449        -0.159104
 C        -2.893513         0.178385         0.714622
 O        -2.514847         0.084332         2.009254
 C        -3.831979         1.336598         0.416159
 C        -4.598236         1.087532        -0.891807
 C        -3.951262         1.341726        -2.190497
 O        -5.040116         2.167773        -1.511980
 H         1.704553         0.308201        -0.183522
 H         0.988168        -1.220315        -0.108965
 H         0.972956        -0.499760        -1.730858
 H        -3.325554        -0.753927         0.388375
 H        -1.838197         0.801533         2.233617
 H        -4.561385         1.421994         1.271391
 H        -3.292022         2.388775         0.371524
 H        -5.291688         0.261427        -0.842187
 H        -2.927595         1.658605        -1.925094
 H        -4.141207         0.537198        -2.964959
