19
Iteration:  1799
 C         0.926697        -0.194027        -0.777773
 C        -0.564451        -0.021497        -0.531799
 C        -1.643682         0.116854         0.005174
 C        -2.902225         0.141524         0.772480
 O        -2.374483         0.230810         2.255225
 C        -4.034299         1.167672         0.521853
 C        -4.573433         1.073934        -1.002387
 C        -3.750842         1.461302        -2.158493
 O        -5.078610         2.268610        -1.686421
 H         1.380117         0.778632        -0.630851
 H         1.470235        -0.881746        -0.145451
 H         0.942447        -0.467694        -1.800497
 H        -3.159695        -0.855621         0.712525
 H        -2.230180         1.220691         2.387005
 H        -4.843095         0.896549         1.300783
 H        -3.625829         2.265728         0.718721
 H        -5.235512         0.182611        -1.010762
 H        -2.878829         2.241255        -2.076874
 H        -4.048119         1.270630        -3.233484
