19
Iteration:  1069
 C         1.468914        -0.155343        -0.248399
 C         0.057577        -0.088997         0.220619
 C        -1.132215         0.074963         0.261433
 C        -2.570622         0.080742         0.103515
 O        -3.351743        -0.295521         1.267081
 C        -2.979048         1.582720        -0.466807
 C        -4.568046         1.667793        -0.485777
 C        -5.403946         1.047008        -1.586914
 O        -5.207538         2.500886        -1.390696
 H         2.241436        -0.641429         0.474810
 H         1.392807        -0.780079        -1.194299
 H         1.834703         0.886286        -0.528619
 H        -2.798358        -0.665055        -0.751362
 H        -2.872273         0.005508         2.079853
 H        -2.630889         2.284207         0.332343
 H        -2.364707         1.815345        -1.397122
 H        -4.879424         1.464666         0.507696
 H        -5.075301         0.802224        -2.621772
 H        -6.377008         0.628414        -1.231508
