19
Iteration:  4395
 C         0.437617        -0.264540        -1.333016
 C        -0.753622        -0.114181        -0.440133
 C        -1.678955        -0.020854         0.377707
 C        -2.954740         0.178451         1.027396
 O        -2.576861         0.628668         2.488241
 C        -3.907513         1.368328         0.412232
 C        -4.102339         0.990889        -0.978867
 C        -3.530617         1.680295        -2.176711
 O        -4.914534         1.781757        -1.845036
 H         0.449041         0.458944        -2.176505
 H         1.370763        -0.150496        -0.812933
 H         0.504642        -1.263393        -1.829706
 H        -3.514455        -0.768728         1.164397
 H        -2.218986         1.557871         2.463411
 H        -4.811421         1.443727         1.053353
 H        -3.387038         2.222097         0.695256
 H        -4.375073        -0.071770        -1.224727
 H        -2.936129         2.571806        -1.906927
 H        -3.322260         1.198214        -3.095141
