19
Iteration:  4481
 C         0.352730        -0.439101        -1.335121
 C        -0.694099        -0.065161        -0.390641
 C        -1.718736        -0.087038         0.329411
 C        -2.752332         0.222468         1.158764
 O        -2.790588         0.761811         2.461399
 C        -3.709663         1.326229         0.378683
 C        -3.856611         1.009419        -1.180305
 C        -3.727784         2.090312        -2.112635
 O        -5.015046         1.483072        -1.834401
 H         0.602687         0.524310        -2.023726
 H         1.281083        -0.653799        -0.799978
 H         0.026362        -1.394288        -1.874374
 H        -3.306195        -0.729876         1.345080
 H        -1.967353         0.618051         3.058940
 H        -4.735778         1.242135         0.914401
 H        -3.233520         2.293090         0.596984
 H        -3.485962         0.004666        -1.271320
 H        -3.645182         3.136257        -1.773820
 H        -3.360912         1.940580        -3.102406
