19
Iteration:  2651charge 0 multiplicity 1
 C         1.197443        -0.200861        -0.628254
 C        -0.167136        -0.037799        -0.156474
 C        -1.344008         0.252648         0.011713
 C        -2.675778         0.118698         0.539007
 O        -2.763268         0.019814         1.951143
 C        -3.715077         1.250202         0.214317
 C        -4.540579         1.078714        -0.981027
 C        -4.291795         1.782377        -2.161287
 O        -5.452346         2.201317        -1.319427
 H         1.370860        -0.438167        -1.697904
 H         1.728887         0.765476        -0.375198
 H         1.533063        -1.092286        -0.081672
 H        -3.109190        -0.782284         0.049377
 H        -2.923571        -0.877813         2.227832
 H        -4.283214         1.173088         1.105119
 H        -3.229969         2.246170         0.215150
 H        -5.090640         0.144421        -1.075599
 H        -3.538426         2.580518        -2.078064
 H        -4.561805         1.412497        -3.173100
