19
Iteration:  1713charge 0 multiplicity 1
 C         0.372439         0.070747        -1.344360
 C        -0.646352        -0.068944        -0.371105
 C        -1.543250        -0.137523         0.402382
 C        -2.903249        -0.012543         1.087812
 O        -2.686230         0.474111         2.446491
 C        -3.768841         1.036740         0.385248
 C        -4.155364         1.027712        -1.131283
 C        -3.580272         1.844065        -2.253458
 O        -4.949463         2.041794        -1.685790
 H         0.455387         1.075541        -1.840423
 H         1.329502        -0.275496        -0.888300
 H         0.404559        -0.655213        -2.177333
 H        -3.570145        -0.981646         1.061099
 H        -2.590819        -0.357177         2.985776
 H        -4.757181         0.907190         0.807669
 H        -3.279918         2.047821         0.625213
 H        -4.675889         0.078665        -1.339955
 H        -3.052511         2.840484        -2.120016
 H        -3.374521         1.536511        -3.297353
