19
Iteration:   851charge 0 multiplicity 1
 C         1.507555         0.003987         0.285030
 C         0.042829        -0.210903         0.287995
 C        -1.119183        -0.077369        -0.125471
 C        -2.528154         0.055474        -0.310448
 O        -3.089240        -0.217050         1.102945
 C        -3.016725         1.399092        -0.838650
 C        -4.549100         1.614036        -0.337588
 C        -5.748472         1.246257        -1.354923
 O        -5.223088         2.571214        -1.140629
 H         1.667073         1.069847         0.520466
 H         2.000251        -0.580612         1.049230
 H         1.855528        -0.182905        -0.739756
 H        -2.992937        -0.782002        -0.751777
 H        -2.477743        -0.863433         1.419003
 H        -2.392314         2.195670        -0.434079
 H        -2.836245         1.333296        -1.960039
 H        -4.638404         1.548198         0.718467
 H        -5.541112         0.837368        -2.292094
 H        -6.710546         0.987480        -0.938813
