19
Iteration:  4007
 C         1.159932        -0.403988        -0.390471
 C        -0.220727        -0.057747        -0.176072
 C        -1.354030         0.210267         0.092790
 C        -2.750960         0.311563         0.578614
 O        -2.603162         0.310463         1.997423
 C        -3.435906         1.567377         0.041826
 C        -4.539913         1.167404        -0.843485
 C        -4.696053         1.182601        -2.328510
 O        -5.350068         2.166589        -1.514464
 H         1.280291        -0.996189        -1.262021
 H         1.835255         0.473880        -0.342182
 H         1.286175        -0.949868         0.496635
 H        -3.327063        -0.531313         0.173844
 H        -2.687654        -0.579665         2.308922
 H        -3.908077         1.969684         0.963780
 H        -2.650117         2.253661        -0.571056
 H        -5.253734         0.578959        -0.239028
 H        -3.825645         1.577711        -2.932205
 H        -5.434866         0.448098        -2.748349
