19
Iteration:   548charge 0 multiplicity 1
 C         1.307358         0.008368        -0.579599
 C        -0.119917         0.075635        -0.159111
 C        -1.290128        -0.164196         0.160288
 C        -2.741651         0.074480         0.334700
 O        -3.346711        -0.061635         1.692568
 C        -3.143813         1.403042        -0.113471
 C        -4.534485         1.228075        -0.587785
 C        -4.705324         1.403694        -2.064996
 O        -5.176394         2.435626        -1.113221
 H         1.432539         0.372647        -1.617063
 H         1.884357         0.682059         0.049084
 H         1.728852        -0.999687        -0.632641
 H        -3.252172        -0.763547        -0.187964
 H        -2.941911        -0.938943         2.001582
 H        -2.849769         2.113008         0.678730
 H        -2.517888         1.631059        -0.969742
 H        -5.185802         0.733490         0.056672
 H        -3.801223         1.699117        -2.632914
 H        -5.401770         0.736546        -2.610139
