19
Iteration:   705charge 0 multiplicity 1
 C         1.396649        -0.099676        -0.066616
 C        -0.010631        -0.254694        -0.158267
 C        -1.210618        -0.014805        -0.112437
 C        -2.641894         0.072673         0.055613
 O        -2.936527        -0.284464         1.427088
 C        -3.227910         1.640967        -0.041695
 C        -4.677061         1.553528        -0.450086
 C        -5.046760         1.247993        -1.803572
 O        -5.384596         2.574169        -1.351242
 H         1.622625         0.790556        -0.731267
 H         1.573745         0.136324         1.046235
 H         1.935115        -1.092700        -0.251980
 H        -3.197595        -0.454831        -0.754503
 H        -2.673273        -1.213541         1.653417
 H        -3.184682         2.132825         1.035965
 H        -2.378833         2.072120        -0.664782
 H        -5.436342         1.133001         0.300782
 H        -4.276885         1.175485        -2.605977
 H        -5.827607         0.531594        -2.058672
