19
Iteration:  3588charge 0 multiplicity 1
 C         1.559826        -0.262158         0.497003
 C         0.096911        -0.200938         0.169139
 C        -1.058299        -0.022687        -0.137805
 C        -2.581713         0.291891        -0.154095
 O        -3.190046        -0.153158         1.009820
 C        -3.010864         1.703609        -0.803527
 C        -4.492169         1.859454        -0.555773
 C        -5.557869         0.936292        -0.803112
 O        -5.340088         2.196282        -1.640798
 H         1.725314        -1.275444         0.896242
 H         1.942922        -0.178353        -0.597822
 H         1.874147         0.548290         1.244121
 H        -2.918233        -0.387515        -0.933478
 H        -3.394486         0.514636         1.750446
 H        -2.428388         2.509240        -0.415096
 H        -2.847010         1.798137        -1.921005
 H        -4.853277         2.641984         0.185920
 H        -5.637832         0.030868        -1.358076
 H        -6.446366         1.022705        -0.062824
