19
Iteration:  3181charge 0 multiplicity 1
 C         1.252489        -0.066797        -0.371142
 C        -0.220117        -0.057888        -0.365398
 C        -1.301670         0.009107         0.168112
 C        -2.801968         0.076681         0.494547
 O        -2.815650         0.025949         1.886313
 C        -3.402128         1.402855         0.031218
 C        -4.583794         1.125325        -0.848595
 C        -4.570102         1.547247        -2.251039
 O        -5.326373         2.305921        -1.281286
 H         1.727124         0.704167         0.245336
 H         1.747886        -0.990837        -0.167753
 H         1.779114         0.158654        -1.328267
 H        -3.282246        -0.839944         0.062757
 H        -3.735205        -0.384436         2.105085
 H        -3.644377         1.960686         1.075100
 H        -2.539527         1.998545        -0.438180
 H        -5.296124         0.319994        -0.732295
 H        -3.658010         1.874101        -2.619431
 H        -5.294029         1.044871        -2.897597
