19
Iteration:  3136
 C         1.204859        -0.217000        -0.419899
 C        -0.237756         0.096054        -0.168615
 C        -1.427469         0.151569        -0.061310
 C        -2.831402         0.155285         0.557071
 O        -2.565944        -0.146838         1.961969
 C        -3.632526         1.362704         0.198573
 C        -4.617890         1.127728        -0.891394
 C        -4.403589         1.555413        -2.315541
 O        -5.339460         2.283398        -1.430367
 H         1.910919         0.601077        -0.107719
 H         1.491973        -1.178354        -0.078493
 H         1.442535        -0.194151        -1.524451
 H        -3.321419        -0.804460         0.244095
 H        -2.703141         0.700793         2.537930
 H        -4.342611         1.653786         1.155980
 H        -3.064089         2.325567        -0.009871
 H        -5.187326         0.227298        -0.645273
 H        -3.596551         2.291222        -2.447566
 H        -4.786553         0.996945        -3.145088
