19
Iteration:   227
 C         1.569351        -0.133196         0.492099
 C         0.103021        -0.313237         0.105429
 C        -1.005368         0.064828        -0.304482
 C        -2.480108         0.167920        -0.446095
 O        -3.068644        -0.367704         0.824256
 C        -3.095007         1.537112        -0.488259
 C        -4.634239         1.701874        -0.289614
 C        -5.785255         1.189252        -1.008941
 O        -5.228551         2.537343        -1.306123
 H         2.172951        -1.060742         0.413069
 H         1.996355         0.675613        -0.160154
 H         1.682903         0.168102         1.560324
 H        -2.839558        -0.394992        -1.380812
 H        -3.629255        -1.151466         0.644210
 H        -2.532415         2.177811         0.258437
 H        -2.741435         2.140003        -1.455563
 H        -4.866343         2.018928         0.809188
 H        -5.739654         0.527809        -1.976891
 H        -6.806927         1.198540        -0.482670
