19
Iteration:  4318charge 0 multiplicity 1
 C         0.518775        -0.198783        -1.168733
 C        -0.640529        -0.095074        -0.328079
 C        -1.690669         0.214001         0.201082
 C        -2.892165         0.219781         0.986458
 O        -2.587782         0.621781         2.364688
 C        -3.947406         1.108720         0.509880
 C        -4.441930         1.026450        -0.972256
 C        -3.702860         1.185353        -2.224841
 O        -4.647600         2.183504        -1.797976
 H         0.381093         0.435632        -2.072977
 H         1.382836         0.231474        -0.744944
 H         0.845115        -1.165911        -1.516964
 H        -3.285029        -0.812958         0.847698
 H        -1.715413         0.920096         2.217378
 H        -4.748155         0.815383         1.263483
 H        -3.615707         2.114887         0.714141
 H        -5.360772         0.375848        -1.223512
 H        -2.630381         1.520501        -2.167563
 H        -3.904648         0.760819        -3.141259
