19
Iteration:  4919
 C         0.779308        -0.146273        -0.972950
 C        -0.472871        -0.068514        -0.407095
 C        -1.552825         0.092142         0.183011
 C        -2.934060         0.204280         0.877242
 O        -2.721205         0.166137         2.283121
 C        -3.818467         1.429843         0.405997
 C        -4.814835         1.482079        -0.852087
 C        -4.311543         0.907803        -2.066657
 O        -4.212660         2.336770        -1.911280
 H         1.390436         0.668042        -0.574311
 H         1.284260        -1.072057        -0.788998
 H         0.746028         0.068756        -2.070276
 H        -3.352715        -0.777247         0.462015
 H        -1.827693        -0.267497         2.132779
 H        -4.305367         1.489292         1.376450
 H        -3.290940         2.322499         0.399295
 H        -5.896005         1.622107        -0.704514
 H        -3.333831         0.288338        -2.147190
 H        -4.936785         0.399322        -2.770144
