19
Iteration:  4128
 C         0.940281        -0.079802        -0.910401
 C        -0.408025         0.010290        -0.313323
 C        -1.375657         0.027908         0.364353
 C        -2.772306         0.159446         0.833906
 O        -2.891580         0.299892         2.267581
 C        -3.391596         1.463011         0.197141
 C        -4.596246         1.274742        -0.818606
 C        -4.451267         0.901884        -2.234217
 O        -4.927685         2.305182        -1.837143
 H         0.805202        -0.089095        -2.008575
 H         1.509992         0.865190        -0.685089
 H         1.464162        -0.936132        -0.508809
 H        -3.116789        -0.877152         0.739246
 H        -2.336251        -0.473962         2.661171
 H        -3.952977         2.093873         0.896641
 H        -2.553697         2.020315        -0.435258
 H        -5.503486         1.041634        -0.276128
 H        -3.357342         0.844741        -2.607269
 H        -5.183054         0.344912        -2.811761
