19
Iteration:  4944
 C         0.736558        -0.082432        -0.999329
 C        -0.624057         0.023817        -0.493215
 C        -1.725685         0.133870         0.065355
 C        -3.033917         0.186572         0.850545
 O        -2.780496         0.170086         2.247492
 C        -3.780660         1.466240         0.554452
 C        -4.527494         1.434759        -0.775347
 C        -4.230883         0.808607        -2.108999
 O        -4.103004         2.241160        -1.850634
 H         1.379450         0.617392        -0.508797
 H         1.177565        -1.112661        -0.847127
 H         0.723426         0.123433        -2.060728
 H        -3.487086        -0.770365         0.533388
 H        -1.763183         0.432044         2.194152
 H        -4.518248         1.419498         1.429244
 H        -3.144502         2.344513         0.720607
 H        -5.597155         1.575890        -0.564674
 H        -3.303453         0.285778        -2.327641
 H        -5.063869         0.446017        -2.768647
