19
Iteration:  1560charge 0 multiplicity 1
 C         0.242308        -0.035854        -1.661280
 C        -0.676069        -0.056070        -0.541257
 C        -1.550750         0.014712         0.344412
 C        -2.874392         0.028033         1.137750
 O        -2.926197         0.546956         2.486482
 C        -3.954152         0.922936         0.490103
 C        -4.080508         0.818301        -1.153044
 C        -3.248429         1.882496        -1.833089
 O        -4.757326         2.022419        -1.703945
 H        -0.331579         0.369304        -2.607125
 H         1.008740         0.817058        -1.416193
 H         0.699124        -1.056696        -1.885043
 H        -3.308380        -0.987286         1.254050
 H        -2.839373         1.512592         2.314347
 H        -4.929201         0.724941         0.863237
 H        -3.861956         1.996870         0.834211
 H        -4.204598        -0.168841        -1.621764
 H        -2.576635         2.660189        -1.411807
 H        -2.996263         1.712609        -2.953739
