19
Iteration:  1312
 C         0.987293        -0.138346        -0.993794
 C        -0.316466        -0.175243        -0.298602
 C        -1.298875         0.073956         0.362000
 C        -2.679941         0.217941         0.750460
 O        -3.140801         0.008244         2.094122
 C        -3.411344         1.534730         0.308835
 C        -4.405967         1.092404        -0.909804
 C        -4.341048         1.531106        -2.372072
 O        -5.158197         2.237027        -1.391941
 H         1.061914        -1.130970        -1.501897
 H         1.159449         0.736894        -1.706133
 H         1.825830        -0.075358        -0.225027
 H        -3.067162        -0.610551         0.038231
 H        -2.412724        -0.408498         2.584363
 H        -4.144098         1.819917         1.112478
 H        -2.657010         2.332680         0.148039
 H        -4.937484         0.166776        -0.594727
 H        -3.590012         2.230399        -2.766463
 H        -4.860187         0.967299        -3.199012
