19
Iteration:  2492
 C         1.429661         0.122287        -0.254642
 C        -0.037277         0.072555         0.037760
 C        -1.270561        -0.132935         0.117116
 C        -2.701530         0.088145         0.271249
 O        -3.144783        -0.459718         1.532902
 C        -3.163058         1.406963        -0.270409
 C        -4.626643         1.447100        -0.573894
 C        -5.228628         1.218677        -1.850272
 O        -5.020111         2.579976        -1.396291
 H         1.932114        -0.582982        -1.016800
 H         1.545426         1.078024        -0.803357
 H         2.026710         0.093601         0.727332
 H        -3.257327        -0.672189        -0.444174
 H        -2.431245        -0.202765         2.122298
 H        -2.922148         2.287955         0.305408
 H        -2.774163         1.536102        -1.248062
 H        -5.342760         1.482873         0.276597
 H        -4.691066         1.043960        -2.797935
 H        -6.266493         0.920706        -1.759694
