19
Iteration:   407
 C         1.294323        -0.134499        -0.079993
 C        -0.091839         0.171875        -0.051508
 C        -1.288700        -0.047132        -0.059326
 C        -2.735879         0.131214         0.052193
 O        -2.900014        -0.385319         1.503695
 C        -3.110008         1.556140        -0.298150
 C        -4.589639         1.552455        -0.478393
 C        -5.202647         1.118186        -1.730974
 O        -5.107158         2.540988        -1.316163
 H         1.634055        -0.367164        -1.105428
 H         1.836932         0.744245         0.291156
 H         1.545997        -1.035484         0.491644
 H        -3.197983        -0.547748        -0.602971
 H        -3.836904        -0.757008         1.549791
 H        -2.589992         2.089386         0.529770
 H        -2.516430         1.779065        -1.154271
 H        -5.152851         1.332521         0.349339
 H        -4.667991         0.851402        -2.632993
 H        -6.233764         0.839140        -1.696358
