19
Iteration:  2223
 C         1.377230        -0.431555         0.662907
 C         0.148491         0.104450         0.131115
 C        -1.051377         0.197703        -0.174428
 C        -2.482231         0.210905        -0.429231
 O        -3.054032        -0.055247         0.866697
 C        -3.067602         1.537634        -0.943415
 C        -4.515890         1.802285        -0.440589
 C        -5.562938         0.866725        -0.825337
 O        -5.453801         2.234881        -1.325121
 H         1.149108        -1.081577         1.497540
 H         2.106167        -0.671185        -0.123531
 H         1.960032         0.347911         1.210022
 H        -2.817165        -0.605999        -1.151206
 H        -2.307504         0.226886         1.479017
 H        -2.371347         2.414372        -0.807274
 H        -3.136864         1.512173        -2.057185
 H        -4.612971         2.341318         0.540763
 H        -5.475660         0.040299        -1.505154
 H        -6.518570         0.739792        -0.283260
