19
Iteration:  2313
 C         1.416779        -0.159145         0.735994
 C         0.176560        -0.035642         0.062432
 C        -1.022733         0.097671        -0.234419
 C        -2.460364         0.143268        -0.374948
 O        -3.216198        -0.135827         0.853671
 C        -3.069043         1.467957        -1.024799
 C        -4.409177         1.844430        -0.478772
 C        -5.614959         0.959414        -0.695725
 O        -5.420600         2.287761        -1.337606
 H         1.370174        -1.248937         1.043714
 H         2.285185         0.034642         0.015796
 H         1.517678         0.639376         1.490024
 H        -2.783771        -0.718755        -1.099651
 H        -2.751598        -0.584502         1.621957
 H        -2.495284         2.393831        -0.816443
 H        -2.977177         1.359071        -2.154403
 H        -4.180212         2.450694         0.388841
 H        -5.542248         0.063387        -1.309305
 H        -6.462570         0.959724        -0.080007
