19
Iteration:   349charge 0 multiplicity 1
 C         1.607448        -0.138946         0.034363
 C         0.153620        -0.230102         0.011064
 C        -1.055011        -0.117289        -0.053414
 C        -2.568883         0.188331        -0.015935
 O        -3.291042        -0.128163         1.075072
 C        -3.124444         1.619691        -0.332184
 C        -4.623833         1.561206        -0.314012
 C        -5.447694         1.118582        -1.488484
 O        -5.256341         2.492829        -1.289192
 H         2.056355        -0.440198        -0.926652
 H         1.892969         0.930788         0.067906
 H         2.055611        -0.499204         0.994318
 H        -2.849194        -0.423408        -0.847847
 H        -3.445802        -1.060386         1.085861
 H        -2.908495         2.167698         0.612413
 H        -2.591060         2.080952        -1.234327
 H        -5.178112         1.572087         0.626630
 H        -5.044837         0.706758        -2.478719
 H        -6.522639         0.707875        -1.313994
