19
Iteration:   936
 C         1.297637         0.027261         0.525346
 C        -0.098072        -0.098036         0.095074
 C        -1.173910        -0.148101        -0.431494
 C        -2.609592        -0.037554        -0.242522
 O        -2.846259        -0.280669         1.143950
 C        -3.086207         1.356288        -0.801336
 C        -4.474543         1.709633        -0.321606
 C        -5.648755         1.196790        -1.242883
 O        -5.159823         2.604546        -1.265276
 H         1.415323         0.786835         1.371172
 H         1.751237        -0.985001         0.698840
 H         1.974566         0.368304        -0.325866
 H        -3.340614        -0.832269        -0.698339
 H        -1.998782        -0.088018         1.645299
 H        -2.410676         2.100995        -0.257882
 H        -2.987908         1.571624        -1.942594
 H        -4.599938         1.931658         0.675524
 H        -5.486051         0.482019        -2.073307
 H        -6.690531         0.996981        -0.872275
