19
Iteration:  3517charge 0 multiplicity 1
 C         1.475042        -0.415971         0.602104
 C         0.126753         0.074937         0.122412
 C        -1.040505         0.116061        -0.033591
 C        -2.430337         0.291059        -0.285724
 O        -3.222901         0.017951         0.859028
 C        -3.040606         1.598824        -0.912236
 C        -4.419417         1.806604        -0.434484
 C        -5.647547         0.963788        -0.758924
 O        -5.346654         2.121739        -1.519634
 H         1.259447        -1.313457         1.245056
 H         1.863215        -0.697573        -0.333797
 H         1.999231         0.325270         1.178157
 H        -2.694294        -0.481405        -1.030080
 H        -3.433737        -0.961557         1.045288
 H        -2.507969         2.552407        -0.843057
 H        -2.991254         1.449505        -2.009203
 H        -4.556057         2.348963         0.474863
 H        -5.571475         0.028190        -1.361447
 H        -6.529627         0.894199        -0.152427
