19
Iteration:  3776
 C         1.269901        -0.166476        -0.431986
 C        -0.010523         0.075467         0.160807
 C        -1.240348        -0.033165         0.298532
 C        -2.670988         0.099249         0.356734
 O        -3.170236         0.182100         1.845757
 C        -3.055674         1.288965        -0.481330
 C        -4.624546         1.404174        -0.633896
 C        -5.143617         1.088969        -1.972246
 O        -5.111757         2.456609        -1.489017
 H         1.338899        -1.178635        -0.827481
 H         1.519733         0.593951        -1.295425
 H         2.117472        -0.090388         0.268192
 H        -3.209414        -0.783242        -0.134065
 H        -2.681047        -0.464520         2.400880
 H        -2.565464         2.165718        -0.233293
 H        -2.555713         1.116597        -1.480570
 H        -5.251184         1.263394         0.231788
 H        -4.352990         1.036964        -2.809042
 H        -6.139127         0.644117        -2.105178
