19
Iteration:  2165
 C         1.495382        -0.238818         0.368110
 C         0.087562        -0.112066         0.078888
 C        -1.115022         0.012071        -0.055012
 C        -2.508111         0.261424        -0.200629
 O        -3.029797        -0.076139         1.136410
 C        -3.009042         1.629390        -0.647722
 C        -4.563134         1.679604        -0.463513
 C        -5.579737         0.935302        -1.183433
 O        -5.445131         2.269829        -1.493590
 H         1.625774        -0.798996         1.263484
 H         2.003445        -0.812398        -0.342872
 H         1.851484         0.754300         0.410043
 H        -3.036290        -0.490723        -0.897353
 H        -2.605077         0.618603         1.650181
 H        -2.505677         2.414376         0.033348
 H        -2.639823         1.777954        -1.655840
 H        -4.979181         1.928180         0.527567
 H        -5.238041         0.298432        -2.037254
 H        -6.573452         0.795868        -0.753749
