19
Iteration:  1447charge 0 multiplicity 1
 C         0.700196        -0.033105        -1.016329
 C        -0.678969        -0.116821        -0.599747
 C        -1.737843        -0.034233        -0.067039
 C        -2.966329         0.052151         0.892134
 O        -2.524945         0.439993         2.174214
 C        -4.051269         1.043537         0.471166
 C        -4.372709         0.923894        -0.941490
 C        -3.511136         1.775519        -1.791426
 O        -4.932510         2.140197        -1.704650
 H         0.957789        -0.342646        -2.102937
 H         1.054726         1.058977        -1.046687
 H         1.301372        -0.743027        -0.366195
 H        -3.447049        -0.992704         1.054867
 H        -1.964201         1.284834         2.106630
 H        -4.900304         1.060258         1.175655
 H        -3.513713         1.962593         0.693738
 H        -4.845400        -0.055959        -1.169413
 H        -2.738560         2.316936        -1.253003
 H        -3.160361         1.426203        -2.704928
