19
Iteration:  2957
 C         0.333789         0.464151        -1.403142
 C        -0.766931         0.012102        -0.528005
 C        -1.695407        -0.202385         0.180665
 C        -2.982574        -0.008955         1.026489
 O        -2.775077         0.258037         2.439005
 C        -3.796720         1.063833         0.400902
 C        -4.147749         0.892520        -1.039299
 C        -3.356813         1.789827        -1.934485
 O        -4.706687         1.952469        -1.661881
 H         0.287236         1.510433        -1.674697
 H         1.244744         0.599517        -0.778676
 H         0.441717        -0.062442        -2.332791
 H        -3.492794        -0.977510         0.972028
 H        -3.635371        -0.099561         2.826553
 H        -4.859157         1.184617         0.937061
 H        -3.265270         2.028001         0.395945
 H        -4.275177        -0.118945        -1.443882
 H        -2.733497         2.599844        -1.482685
 H        -3.032868         1.411402        -3.003881
