19
Iteration:  2551charge 0 multiplicity 1
 C         1.356457        -0.010356        -0.448022
 C        -0.037272        -0.021891        -0.085283
 C        -1.285605         0.039935         0.103504
 C        -2.691721         0.078324         0.357111
 O        -3.059675        -0.312158         1.722510
 C        -3.342923         1.460697        -0.066416
 C        -4.729114         1.239172        -0.656871
 C        -4.747318         1.422943        -2.174382
 O        -5.220861         2.412455        -1.222542
 H         1.604703        -0.699182        -1.259153
 H         1.767354         1.044515        -0.552117
 H         1.943778        -0.406782         0.419440
 H        -3.177634        -0.558334        -0.348673
 H        -2.843660         0.502652         2.275788
 H        -3.390985         2.095262         0.811392
 H        -2.804260         2.085890        -0.760857
 H        -5.480320         0.715169        -0.083102
 H        -3.809361         1.645080        -2.746436
 H        -5.591301         1.044327        -2.832695
