19
Iteration:  3752charge 0 multiplicity 1
 C         1.354993        -0.112790        -0.305347
 C        -0.065702        -0.016333        -0.006776
 C        -1.200163        -0.015799         0.361493
 C        -2.651229         0.027672         0.299523
 O        -3.154838         0.198747         1.662236
 C        -3.130508         1.225375        -0.435971
 C        -4.603912         1.541791        -0.581446
 C        -5.250428         1.047994        -1.791307
 O        -5.066239         2.469020        -1.586275
 H         1.635095        -1.100521        -0.590866
 H         1.629331         0.568882        -1.126184
 H         2.017429         0.142850         0.542019
 H        -3.060352        -0.937173        -0.141332
 H        -3.004885        -0.520567         2.231939
 H        -2.603187         2.056776         0.117798
 H        -2.624333         1.403517        -1.419974
 H        -5.197107         1.585644         0.330920
 H        -4.464955         0.744361        -2.562634
 H        -6.224932         0.605237        -1.811167
