19
Iteration:   127
 C         1.455794         0.018140         0.391790
 C         0.080468        -0.080171         0.055383
 C        -1.096876        -0.177357        -0.228987
 C        -2.557956         0.051204        -0.402742
 O        -3.334721        -0.370753         0.785853
 C        -2.958713         1.488056        -0.557895
 C        -4.491253         1.670864        -0.205264
 C        -5.544809         1.207648        -1.101461
 O        -5.189918         2.598525        -1.148813
 H         1.847269        -0.982594         0.681748
 H         2.039034         0.419522        -0.471613
 H         1.623923         0.680320         1.260213
 H        -3.005612        -0.484114        -1.302903
 H        -3.216261        -1.313871         0.855305
 H        -2.200695         2.066851         0.053405
 H        -2.773480         1.901372        -1.620330
 H        -4.770770         1.926957         0.891726
 H        -5.208766         0.600487        -1.996466
 H        -6.580866         0.992910        -0.706838
