19
Iteration:  2011
 C         1.074587         0.243863        -0.715061
 C        -0.105438        -0.178085        -0.030895
 C        -1.280505        -0.082811         0.372098
 C        -2.719446         0.003348         0.572702
 O        -3.086286         0.015634         2.001882
 C        -3.200718         1.344252        -0.220782
 C        -4.560788         1.295823        -0.732140
 C        -4.873081         1.136685        -2.193017
 O        -4.969542         2.410319        -1.443756
 H         1.866082         0.471140        -0.018419
 H         1.417768        -0.650601        -1.234903
 H         0.995779         1.009167        -1.481465
 H        -3.308816        -0.851536         0.276352
 H        -3.180174         0.999444         2.203876
 H        -3.124921         2.212285         0.525236
 H        -2.563849         1.632635        -1.081889
 H        -5.273365         0.822455        -0.054795
 H        -4.045364         1.037337        -2.907521
 H        -5.892754         0.928562        -2.503271
