19
Iteration:   731charge 0 multiplicity 1
 C         1.489779        -0.118351        -0.042004
 C         0.003501        -0.134823         0.162608
 C        -1.207652        -0.121810        -0.210681
 C        -2.654370         0.168367        -0.019000
 O        -3.002920        -0.332008         1.305644
 C        -3.162196         1.687749        -0.197069
 C        -4.743082         1.589491        -0.387087
 C        -5.180991         1.179217        -1.752874
 O        -5.285437         2.529581        -1.265010
 H         1.650026         0.720360        -0.712292
 H         2.015597        -0.065102         0.879892
 H         1.647108        -1.056107        -0.530848
 H        -3.253608        -0.306294        -0.828766
 H        -2.508830        -1.177543         1.428046
 H        -3.057646         2.179869         0.735591
 H        -2.467725         2.126807        -0.950218
 H        -5.428634         1.387381         0.390216
 H        -4.477946         1.078215        -2.545125
 H        -6.043812         0.548147        -1.898786
