19
Iteration:  3190charge 0 multiplicity 1
 C         1.261939        -0.023456        -0.429432
 C        -0.176940        -0.100305        -0.275457
 C        -1.292989        -0.050120         0.198161
 C        -2.700432         0.032268         0.497148
 O        -2.858254         0.004176         1.910364
 C        -3.364543         1.453183         0.004473
 C        -4.626809         1.142493        -0.848383
 C        -4.636861         1.535331        -2.274475
 O        -5.323883         2.342166        -1.305327
 H         1.606488         0.691756         0.338721
 H         1.548152        -0.962503        -0.130231
 H         1.615515         0.288210        -1.370332
 H        -3.244906        -0.835556         0.058949
 H        -3.588204        -0.640236         2.165443
 H        -3.601524         2.137142         0.869689
 H        -2.714337         2.028277        -0.673173
 H        -5.151616         0.300056        -0.474388
 H        -3.809326         2.125399        -2.648457
 H        -5.299154         1.045219        -3.002411
