19
Iteration:  1766charge 0 multiplicity 1
 C         0.764893        -0.056946        -1.012995
 C        -0.573794        -0.114016        -0.397765
 C        -1.691953        -0.003165         0.050618
 C        -2.909182         0.051590         0.856403
 O        -2.683393         0.482464         2.242760
 C        -3.884346         1.076176         0.344863
 C        -4.357477         0.853395        -1.019918
 C        -3.718661         1.633134        -2.091752
 O        -4.956213         2.232054        -1.497769
 H         1.098931         0.959593        -1.216165
 H         1.592624        -0.556987        -0.539423
 H         0.752634        -0.481140        -2.000351
 H        -3.282898        -0.942311         0.836246
 H        -1.788260         0.897431         2.346609
 H        -4.724388         1.226782         1.097174
 H        -3.321993         2.098175         0.433489
 H        -5.031849         0.006488        -1.275620
 H        -2.761811         2.271427        -1.880382
 H        -3.847040         1.398719        -3.190286
