19
Iteration:  1550
 C         0.303534        -0.025212        -1.657297
 C        -0.762426        -0.037432        -0.550628
 C        -1.546819        -0.057287         0.326600
 C        -2.828829         0.037442         1.097639
 O        -2.932138         0.615857         2.478853
 C        -4.050118         0.843431         0.421006
 C        -4.102732         0.906643        -1.076068
 C        -3.254891         1.849202        -1.884828
 O        -4.735712         2.021639        -1.641224
 H        -0.061443         0.237252        -2.732493
 H         1.149878         0.700451        -1.315019
 H         0.934059        -0.977735        -1.706633
 H        -3.133007        -1.010487         1.168058
 H        -2.679568         1.540532         2.462059
 H        -4.899750         0.508322         1.021510
 H        -3.802688         1.937914         0.573456
 H        -4.360688        -0.050024        -1.561406
 H        -2.688056         2.512211        -1.160139
 H        -2.852583         1.789365        -2.976666
