19
Iteration:  4358charge 0 multiplicity 1
 C         0.508416        -0.292970        -1.276453
 C        -0.680131         0.030968        -0.483462
 C        -1.669090         0.046152         0.238490
 C        -2.954166         0.187238         1.045301
 O        -2.659168         0.712375         2.494778
 C        -3.863932         1.171729         0.418214
 C        -4.375349         0.836114        -1.080039
 C        -3.526733         1.464766        -2.169050
 O        -4.802556         2.058168        -1.718272
 H         0.521490         0.407413        -2.221831
 H         1.427848         0.012576        -0.683110
 H         0.563365        -1.349619        -1.577625
 H        -3.359396        -0.754929         1.372434
 H        -1.825791         1.313693         2.521415
 H        -4.776936         1.229989         0.982847
 H        -3.315486         2.110205         0.229981
 H        -4.959656        -0.010510        -1.019437
 H        -2.615797         1.972290        -1.863826
 H        -3.527694         1.012126        -3.195434
