19
Iteration:  4288
 C         0.688330        -0.153770        -1.153719
 C        -0.564873         0.046866        -0.447517
 C        -1.643164         0.003253         0.136124
 C        -2.963840         0.222509         0.926411
 O        -2.615527         0.532437         2.407159
 C        -4.010407         1.306032         0.516806
 C        -4.596450         1.120514        -0.926593
 C        -3.770292         1.030845        -2.054703
 O        -4.589717         2.202281        -1.882428
 H         0.681620         0.309692        -2.076824
 H         1.535778         0.381721        -0.701641
 H         1.060635        -1.179213        -1.363870
 H        -3.480338        -0.751721         0.833576
 H        -1.596385         0.564555         2.361115
 H        -4.767317         1.155481         1.305417
 H        -3.505631         2.261963         0.377288
 H        -5.567128         0.498964        -0.955926
 H        -2.647125         1.276264        -1.950277
 H        -4.081968         0.418280        -2.907131
