19
Iteration:  2337charge 0 multiplicity 1
 C         1.434775        -0.071407         0.630087
 C         0.034582         0.047449         0.172681
 C        -1.157532         0.089757        -0.184952
 C        -2.630774        -0.021485        -0.421091
 O        -3.158012        -0.162512         0.868439
 C        -2.912001         1.413909        -0.905800
 C        -4.332919         1.802336        -0.411533
 C        -5.579293         1.024872        -0.811544
 O        -5.394560         2.314157        -1.391582
 H         1.504407        -1.229564         0.736270
 H         2.059800         0.255077        -0.277304
 H         1.756180         0.675139         1.414335
 H        -2.960742        -0.845698        -1.130091
 H        -2.410152        -0.223444         1.515545
 H        -2.228531         2.137144        -0.633828
 H        -2.944183         1.485700        -1.990722
 H        -4.300692         2.432295         0.508570
 H        -5.669258         0.126806        -1.396259
 H        -6.254351         0.927188         0.045913
