19
Iteration:  4827charge 0 multiplicity 1
 C         0.952728        -0.295468        -0.744545
 C        -0.471120        -0.155607        -0.380251
 C        -1.528105         0.039131         0.165847
 C        -2.842779         0.252893         0.680927
 O        -2.817326         0.112841         2.181037
 C        -3.437613         1.614308         0.241781
 C        -4.646956         1.363048        -0.770364
 C        -4.195831         1.136428        -2.116622
 O        -4.965708         2.336219        -1.812540
 H         1.424960         0.661111        -0.347366
 H         1.277432        -1.132957        -0.067578
 H         1.081585        -0.498116        -1.805995
 H        -3.649734        -0.560428         0.603442
 H        -1.841615        -0.177504         2.393290
 H        -3.926411         2.014859         1.098916
 H        -2.556904         2.277489        -0.027049
 H        -5.381967         0.805779        -0.177564
 H        -3.216952         1.182212        -2.436318
 H        -4.641054         0.387847        -2.784954
