19
Iteration:  4421charge 0 multiplicity 1
 C         0.315396        -0.272116        -1.311900
 C        -0.801788        -0.252012        -0.313808
 C        -1.816102         0.117574         0.273231
 C        -2.887749         0.433495         1.111663
 O        -2.522504         0.503090         2.522278
 C        -3.792988         1.332007         0.383634
 C        -3.927464         0.894012        -1.094483
 C        -3.578208         1.828114        -2.175675
 O        -4.974284         1.674436        -1.889661
 H         0.153078         0.583943        -1.904461
 H         1.288790        -0.135522        -0.744675
 H         0.382721        -1.121617        -1.992605
 H        -3.530247        -0.478088         1.247366
 H        -1.976740         1.230589         2.997250
 H        -4.678741         1.247024         0.993103
 H        -3.368167         2.395618         0.622333
 H        -4.048976        -0.129331        -1.497987
 H        -3.157938         2.761745        -1.811318
 H        -3.234204         1.410619        -3.220439
