19
Iteration:  2609charge 0 multiplicity 1
 C         1.282185        -0.203197        -0.522256
 C        -0.124444         0.035166        -0.270905
 C        -1.277188         0.165466         0.228460
 C        -2.643861         0.131956         0.525652
 O        -2.899484        -0.223244         1.919813
 C        -3.486758         1.401470         0.187965
 C        -4.558119         1.173065        -0.927988
 C        -4.564360         1.691776        -2.298601
 O        -5.501137         2.305073        -1.333164
 H         1.368995        -0.564563        -1.556792
 H         1.925496         0.708998        -0.544346
 H         1.578726        -0.938234         0.231079
 H        -3.006689        -0.667397        -0.130999
 H        -2.042052        -0.455707         2.267872
 H        -4.211380         1.574236         1.035583
 H        -2.844240         2.394256        -0.022940
 H        -5.057344         0.185850        -0.735331
 H        -3.755323         2.278392        -2.738477
 H        -5.082327         1.019039        -2.979233
