19
Iteration:  2301charge 0 multiplicity 1
 C         1.463879        -0.192835         0.790262
 C         0.188819        -0.073666         0.038319
 C        -0.973768         0.045809        -0.227275
 C        -2.467331         0.244446        -0.354901
 O        -3.190843        -0.093616         0.812015
 C        -3.055222         1.516913        -1.076580
 C        -4.481901         1.857880        -0.406044
 C        -5.672853         0.962942        -0.691980
 O        -5.431439         2.244811        -1.350475
 H         1.598480        -1.186325         1.299363
 H         2.354344        -0.202396         0.105630
 H         1.618323         0.466211         1.650116
 H        -2.723564        -0.571224        -1.161825
 H        -2.536975        -0.724155         1.161740
 H        -2.365342         2.407520        -1.204470
 H        -3.461061         1.164509        -2.079017
 H        -4.634838         2.451644         0.478323
 H        -5.508562         0.102449        -1.337329
 H        -6.407059         0.933238         0.075937
