19
Iteration:  2110
 C         1.485428        -0.116414        -0.025111
 C         0.011987        -0.026585        -0.041576
 C        -1.142814         0.112317         0.106593
 C        -2.641308         0.169526         0.169699
 O        -3.041528        -0.032755         1.482284
 C        -3.172159         1.441164        -0.493063
 C        -4.656252         1.530410        -0.486046
 C        -5.421384         1.004307        -1.521600
 O        -5.110150         2.393757        -1.589590
 H         1.799647        -0.382538         0.938279
 H         1.710171        -0.870137        -0.717339
 H         2.045271         0.752935        -0.188154
 H        -2.967116        -0.742761        -0.444606
 H        -3.403237        -0.939068         1.646781
 H        -2.746417         2.365333         0.027234
 H        -2.840170         1.403392        -1.525829
 H        -5.240434         1.679309         0.416314
 H        -5.081976         0.528872        -2.451650
 H        -6.399727         0.656292        -1.232045
