19
Iteration:  1160
 C         1.231061        -0.187330        -0.170379
 C        -0.220145         0.104211        -0.050586
 C        -1.399597        -0.062885        -0.203390
 C        -2.763718         0.107078         0.300324
 O        -2.737406        -0.276462         1.698546
 C        -3.264973         1.492151        -0.068285
 C        -4.710477         1.586363        -0.510985
 C        -4.984035         1.066496        -1.959139
 O        -5.038396         2.530702        -1.518555
 H         1.646062        -1.183943         0.143697
 H         1.477454        -0.196101        -1.298399
 H         1.859707         0.661227         0.239076
 H        -3.623500        -0.570873        -0.096879
 H        -1.986754         0.196822         2.027662
 H        -3.274680         2.190568         0.850439
 H        -2.804897         2.093350        -0.905839
 H        -5.532892         1.458187         0.241932
 H        -4.110308         1.002554        -2.549102
 H        -5.884305         0.597446        -2.319099
