19
Iteration:  1385
 C         0.717717        -0.142025        -1.022264
 C        -0.487533         0.096037        -0.301562
 C        -1.564106        -0.061977         0.175279
 C        -2.908645         0.052068         0.924115
 O        -2.631554         0.099444         2.319216
 C        -3.707246         1.222604         0.395387
 C        -4.298302         1.137889        -1.050308
 C        -3.922149         1.771304        -2.391469
 O        -5.139779         2.154593        -1.570871
 H         0.550291        -0.871801        -1.793821
 H         1.121304         0.819267        -1.277961
 H         1.484178        -0.402052        -0.326667
 H        -3.394048        -0.882076         0.837744
 H        -1.799200         0.632045         2.506621
 H        -4.496818         1.388840         1.121328
 H        -2.952415         2.062440         0.348520
 H        -4.801363         0.167543        -1.187176
 H        -3.016579         2.447465        -2.369936
 H        -4.304722         1.250463        -3.297325
