19
Iteration:  3829charge 0 multiplicity 1
 C         1.324197        -0.211848        -0.464857
 C        -0.081725        -0.236395        -0.119682
 C        -1.113326         0.041779         0.412790
 C        -2.575865         0.158602         0.577225
 O        -3.110926         0.335522         1.849516
 C        -3.251737         1.337579        -0.334569
 C        -4.678508         1.173993        -0.794873
 C        -4.978944         1.242487        -2.233602
 O        -5.252839         2.387120        -1.344995
 H         1.561103        -1.012179        -1.077683
 H         1.444874         0.672566        -0.989281
 H         1.891858        -0.209364         0.470089
 H        -2.957413        -0.783170         0.140344
 H        -2.569038         0.499629         2.639614
 H        -3.306370         2.263392         0.335498
 H        -2.452564         1.687126        -1.074440
 H        -5.403191         0.687782        -0.202622
 H        -4.180565         1.315684        -3.019736
 H        -5.938129         0.840968        -2.522889
