19
Iteration:  1108charge 0 multiplicity 1
 C         1.455665        -0.114538        -0.217788
 C         0.067754        -0.142182        -0.182830
 C        -1.135476        -0.065482         0.126012
 C        -2.590735         0.147951         0.216186
 O        -3.261699        -0.242912         1.494200
 C        -3.161577         1.592466        -0.198488
 C        -4.681477         1.650306        -0.452644
 C        -5.226375         1.077796        -1.777244
 O        -5.137547         2.462748        -1.463820
 H         1.701100        -0.824687         0.517088
 H         1.939310        -0.496694        -1.078036
 H         1.899561         0.814655         0.036122
 H        -3.119888        -0.544184        -0.450679
 H        -2.713182         0.111639         2.189714
 H        -2.936067         2.407615         0.527603
 H        -2.940534         2.000770        -1.174054
 H        -5.427644         1.406627         0.345719
 H        -4.461516         0.607390        -2.351292
 H        -6.284588         0.832787        -1.946850
