19
Iteration:   932charge 0 multiplicity 1
 C         1.266362         0.022438         0.543087
 C        -0.089816        -0.062650         0.031883
 C        -1.213175        -0.142268        -0.404947
 C        -2.618332        -0.057750        -0.261531
 O        -2.850218        -0.267971         1.148921
 C        -3.079193         1.392345        -0.780888
 C        -4.438322         1.656879        -0.320576
 C        -5.619494         1.215488        -1.245112
 O        -5.155691         2.577331        -1.251029
 H         1.376959         0.738691         1.312772
 H         1.636537        -0.968802         0.781214
 H         1.909877         0.347162        -0.259350
 H        -3.221837        -0.765440        -0.719446
 H        -1.977307        -0.120202         1.532198
 H        -2.455805         2.236295        -0.478197
 H        -2.896328         1.263320        -1.824410
 H        -4.640261         2.029917         0.771170
 H        -5.497594         0.489548        -2.157465
 H        -6.627906         1.096217        -0.820567
