19
Iteration:   371
 C         1.626782        -0.087411         0.028290
 C         0.102346        -0.270085        -0.162190
 C        -1.116205        -0.028545        -0.064488
 C        -2.584239         0.131531        -0.093072
 O        -3.256286        -0.249533         1.398600
 C        -3.093189         1.544680        -0.279646
 C        -4.690147         1.717403        -0.362087
 C        -5.266958         1.113267        -1.608463
 O        -5.321210         2.537115        -1.320769
 H         2.235275        -0.275510        -0.878263
 H         1.823601         0.967955         0.275230
 H         1.981549        -0.615023         0.952502
 H        -2.973140        -0.488182        -0.874408
 H        -3.904118        -0.992129         1.173065
 H        -2.818559         2.306335         0.466233
 H        -2.642593         1.859246        -1.300524
 H        -5.203126         1.490728         0.554914
 H        -4.678260         0.584807        -2.410511
 H        -6.320956         0.705930        -1.442412
