19
Iteration:  4122charge 0 multiplicity 1
 C         0.948846        -0.099736        -0.898595
 C        -0.359802         0.009955        -0.284163
 C        -1.428044         0.108906         0.357092
 C        -2.777362         0.124860         0.843367
 O        -2.867260         0.275706         2.309939
 C        -3.332601         1.458353         0.137688
 C        -4.617043         1.295470        -0.807209
 C        -4.429448         0.897093        -2.259391
 O        -4.982140         2.327712        -1.841956
 H         0.885955        -0.168749        -1.998601
 H         1.526364         0.790113        -0.738563
 H         1.566636        -0.968412        -0.563418
 H        -3.377003        -0.820539         0.637375
 H        -2.331490        -0.449030         2.612262
 H        -3.810790         2.039522         0.972656
 H        -2.604017         1.977134        -0.372945
 H        -5.623627         0.894915        -0.405655
 H        -3.463112         0.767466        -2.607884
 H        -5.222152         0.352258        -2.808735
