19
Iteration:  2238
 C         1.404498        -0.369997         0.728861
 C         0.103202         0.094205         0.242542
 C        -1.043782         0.155661        -0.256388
 C        -2.462538         0.291499        -0.441646
 O        -3.026450        -0.082079         0.875247
 C        -3.075857         1.623479        -1.052999
 C        -4.431548         1.681242        -0.466519
 C        -5.658088         0.930030        -0.727204
 O        -5.503951         2.237224        -1.380952
 H         1.193408        -1.424700         1.124804
 H         1.930184        -0.902827        -0.150252
 H         2.034391         0.425058         1.217482
 H        -2.738341        -0.540616        -1.009479
 H        -2.320990        -0.329634         1.447535
 H        -2.434241         2.358662        -0.666032
 H        -3.022959         1.611747        -2.153002
 H        -4.424676         2.106026         0.529678
 H        -5.540823         0.135625        -1.495280
 H        -6.225734         0.807619         0.161117
