19
Iteration:  4704
 C         1.054047        -0.506422        -0.669865
 C        -0.350480        -0.332567        -0.191545
 C        -1.521515         0.043660         0.150594
 C        -2.846359         0.161214         0.735823
 O        -2.644013         0.629468         2.124324
 C        -3.697166         1.303416         0.193099
 C        -4.407818         1.074075        -1.144819
 C        -4.203932         1.754281        -2.373846
 O        -5.261007         2.167300        -1.360574
 H         1.538554         0.437235        -0.849001
 H         1.629349        -1.214350         0.064225
 H         1.006334        -0.990244        -1.680415
 H        -3.303421        -0.861139         0.839758
 H        -1.960808        -0.137167         2.337534
 H        -4.547483         1.530428         0.850026
 H        -3.266626         2.282855         0.165152
 H        -4.903731         0.079076        -1.332605
 H        -3.390917         2.470538        -2.552703
 H        -4.636518         1.290323        -3.170788
