19
Iteration:   638charge 0 multiplicity 1
 C         1.317004        -0.191184        -0.413415
 C        -0.033089         0.175622         0.038735
 C        -1.244300         0.100957         0.083235
 C        -2.679030        -0.130449         0.272195
 O        -2.978776        -0.218883         1.638562
 C        -3.299862         1.345190        -0.048597
 C        -4.728302         1.374526        -0.589907
 C        -4.972155         1.396304        -2.103612
 O        -5.159999         2.616855        -1.265649
 H         1.620127         0.306558        -1.388382
 H         2.103795         0.147045         0.333586
 H         1.358704        -1.283564        -0.721753
 H        -3.048534        -0.932042        -0.386208
 H        -2.525566        -0.992418         2.028263
 H        -3.156785         1.936239         0.949919
 H        -2.800676         1.941841        -0.861935
 H        -5.654887         1.008994        -0.121580
 H        -4.140968         1.375554        -2.816123
 H        -5.853894         0.877999        -2.565779
