19
Iteration:  4965charge 0 multiplicity 1
 C         0.615743        -0.015523        -1.042735
 C        -0.728849         0.123507        -0.466742
 C        -1.883992         0.090880        -0.064852
 C        -3.031027         0.175807         0.829966
 O        -2.720816         0.112325         2.280997
 C        -3.806582         1.479081         0.538707
 C        -4.494164         1.436948        -0.742311
 C        -4.091510         0.777973        -1.990621
 O        -3.968850         2.199654        -1.892810
 H         1.352971         0.563807        -0.575352
 H         0.970329        -1.067514        -0.934829
 H         0.711070         0.225010        -2.093251
 H        -3.529164        -0.800254         0.763932
 H        -2.171417         0.814073         2.632750
 H        -4.458279         1.661578         1.422210
 H        -3.103676         2.254999         0.537942
 H        -5.584184         1.551409        -0.621960
 H        -3.220585         0.157104        -2.125321
 H        -4.849605         0.418317        -2.686790
