19
Iteration:    70charge 0 multiplicity 1
 C         1.593845        -0.104230         0.182039
 C         0.146882         0.021855         0.144171
 C        -1.067328         0.041994         0.011276
 C        -2.564362        -0.006536        -0.182994
 O        -3.071284        -0.801521         0.861843
 C        -3.127707         1.392572        -0.550514
 C        -4.656002         1.782310        -0.311327
 C        -5.690613         1.391230        -1.366800
 O        -5.207272         2.739577        -1.123877
 H         1.873793        -1.094304         0.586599
 H         2.057718        -0.056680        -0.800874
 H         2.046727         0.698334         0.783367
 H        -2.646152        -0.619223        -1.108511
 H        -3.937143        -0.375508         1.077921
 H        -2.571416         2.133688        -0.002446
 H        -3.030657         1.539996        -1.600462
 H        -4.909373         1.924894         0.762502
 H        -5.381996         1.062117        -2.297589
 H        -6.651726         1.132196        -1.060691
