19
Iteration:  1661charge 0 multiplicity 1
 C         0.175154         0.022915        -1.525525
 C        -0.813977         0.030092        -0.594224
 C        -1.652585         0.079433         0.361585
 C        -2.934749         0.130792         1.043526
 O        -2.892418         0.311277         2.446607
 C        -3.741494         1.326550         0.521266
 C        -3.914202         0.949955        -0.971659
 C        -3.321643         1.905432        -1.983228
 O        -4.820293         1.657835        -1.769525
 H        -0.054803         0.910659        -2.212242
 H         1.236884         0.165749        -1.094745
 H         0.191280        -0.901458        -2.209653
 H        -3.691560        -0.659857         0.914633
 H        -2.523566        -0.492213         2.899287
 H        -4.688830         1.409848         1.020479
 H        -3.124232         2.201204         0.507698
 H        -3.560754        -0.065040        -1.172222
 H        -2.811845         2.782510        -1.528597
 H        -3.116492         1.383214        -2.892580
