19
Iteration:   600charge 0 multiplicity 1
 C         1.369774        -0.036038        -0.640396
 C        -0.018359        -0.173361         0.031885
 C        -1.191627         0.007881         0.397771
 C        -2.633758         0.058033         0.455031
 O        -3.093353        -0.330377         1.733318
 C        -3.286907         1.531352        -0.104087
 C        -4.761368         1.355654        -0.766241
 C        -4.992749         1.453703        -2.227771
 O        -5.176752         2.553297        -1.245689
 H         1.270917         0.534870        -1.556902
 H         2.059423         0.476893        -0.011558
 H         1.778405        -0.983294        -0.931325
 H        -2.965176        -0.777122        -0.168220
 H        -2.446086        -0.978646         2.154774
 H        -3.207664         2.243745         0.637770
 H        -2.556615         1.746906        -0.853938
 H        -5.288495         0.684303        -0.059375
 H        -4.209310         1.695325        -2.969208
 H        -5.935845         1.017392        -2.511433
