19
Iteration:  3393
 C         1.466501        -0.008553         0.283030
 C         0.088990        -0.007321        -0.127136
 C        -1.163035        -0.146970        -0.046151
 C        -2.700813         0.068904        -0.036796
 O        -3.081472        -0.094541         1.364267
 C        -3.052074         1.446923        -0.555275
 C        -4.532673         1.643154        -0.464405
 C        -5.568322         1.038212        -1.375477
 O        -5.094479         2.452304        -1.531027
 H         1.376702        -0.262262         1.314672
 H         2.090077        -0.737628        -0.337872
 H         1.868749         1.003791         0.136866
 H        -3.391488        -0.655653        -0.517765
 H        -3.684713        -0.857302         1.651771
 H        -2.428178         2.355733        -0.099434
 H        -2.738652         1.395650        -1.653634
 H        -5.041607         1.859688         0.472776
 H        -5.060581         0.465513        -2.129713
 H        -6.623609         0.893249        -1.054285
