19
Iteration:  3138charge 0 multiplicity 1
 C         1.230978        -0.214379        -0.409765
 C        -0.229331         0.096779        -0.182188
 C        -1.449449         0.140225        -0.084199
 C        -2.811530         0.164250         0.551491
 O        -2.590080        -0.135188         1.969588
 C        -3.617075         1.355553         0.214602
 C        -4.621497         1.113946        -0.900629
 C        -4.414531         1.578322        -2.315621
 O        -5.332378         2.277448        -1.421169
 H         1.910692         0.621553        -0.090976
 H         1.461672        -1.237771        -0.013964
 H         1.395285        -0.122856        -1.563622
 H        -3.339942        -0.750190         0.204536
 H        -2.814813         0.640759         2.565716
 H        -4.262933         1.707313         1.103196
 H        -3.043214         2.297716        -0.052770
 H        -5.155206         0.195217        -0.607292
 H        -3.563355         2.154618        -2.434919
 H        -4.870996         0.987827        -3.097096
