19
Iteration:  4143
 C         0.911661        -0.006435        -0.955776
 C        -0.423760        -0.015868        -0.344037
 C        -1.372081        -0.066579         0.371738
 C        -2.778282         0.197320         0.795002
 O        -2.934465         0.372321         2.219630
 C        -3.482472         1.484982         0.213973
 C        -4.588202         1.226167        -0.719833
 C        -4.423183         0.944658        -2.230819
 O        -4.755923         2.214410        -1.790629
 H         0.987183        -0.071854        -2.045931
 H         1.496351         0.811388        -0.668503
 H         1.455119        -0.882920        -0.646004
 H        -3.533082        -0.478490         0.360587
 H        -2.442704        -0.332061         2.679889
 H        -3.842378         1.957661         1.193470
 H        -2.763326         2.125030        -0.248992
 H        -5.651992         0.768585        -0.430285
 H        -3.503785         0.827100        -2.702340
 H        -5.261812         0.320431        -2.640682
