19
Iteration:   469charge 0 multiplicity 1
 C         1.487230         0.003534        -0.352767
 C         0.021317        -0.176566        -0.229988
 C        -1.134952         0.005467         0.158861
 C        -2.705502         0.077533         0.348375
 O        -2.927414        -0.399686         1.714870
 C        -3.349622         1.408587        -0.031906
 C        -4.841001         1.445502        -0.573057
 C        -5.177489         1.323563        -2.056659
 O        -5.065307         2.668614        -1.421291
 H         1.813889         0.251206        -1.364933
 H         1.858316         0.826264         0.273678
 H         2.016681        -0.865823         0.087134
 H        -3.225386        -0.764624        -0.198214
 H        -3.868514        -0.220972         2.017436
 H        -3.118307         2.169173         0.682699
 H        -2.900057         1.683730        -1.016139
 H        -5.642430         1.026232         0.111839
 H        -4.403670         0.870990        -2.751138
 H        -6.229198         1.259919        -2.421734
