19
Iteration:   464charge 0 multiplicity 1
 C         1.509052        -0.003626        -0.333375
 C         0.015785        -0.149935        -0.229602
 C        -1.154594         0.025890         0.161068
 C        -2.744982         0.018881         0.331918
 O        -2.907907        -0.380211         1.680591
 C        -3.394283         1.432073        -0.064337
 C        -4.839644         1.453972        -0.583617
 C        -5.169500         1.333536        -2.017000
 O        -5.046638         2.641707        -1.415875
 H         1.826261         0.203782        -1.368992
 H         2.014292         0.777600         0.279406
 H         1.933278        -0.881868         0.160475
 H        -3.137269        -0.825465        -0.257569
 H        -3.769750        -0.174203         1.983556
 H        -3.127834         2.140590         0.786607
 H        -2.841324         1.541535        -1.005451
 H        -5.642912         1.173014         0.216176
 H        -4.431041         0.869163        -2.628096
 H        -6.197160         1.253833        -2.313512
