19
Iteration:  3903
 C         1.330385        -0.374188        -0.318523
 C        -0.136892        -0.056674        -0.014232
 C        -1.333186        -0.047466         0.097398
 C        -2.725124         0.243100         0.545289
 O        -2.728399         0.290178         1.939921
 C        -3.351794         1.544153        -0.155516
 C        -4.580031         1.159969        -0.937556
 C        -4.931060         1.268107        -2.369639
 O        -5.357272         2.265544        -1.304702
 H         1.310827        -1.243743        -1.068142
 H         1.828967         0.475762        -0.758302
 H         1.769682        -0.691625         0.714442
 H        -3.233185        -0.671906         0.197600
 H        -2.095486         0.947401         2.194543
 H        -3.736814         2.148001         0.738882
 H        -2.648789         2.207264        -0.613077
 H        -5.189358         0.322126        -0.569115
 H        -4.331321         1.793757        -3.120159
 H        -5.567905         0.574692        -2.766268
