19
Iteration:   281
 C         1.514754        -0.368749         0.235329
 C         0.161345         0.228140         0.097000
 C        -1.061451         0.158125         0.014090
 C        -2.446899         0.050017        -0.201155
 O        -3.149188        -0.648767         0.932300
 C        -3.181866         1.587069        -0.702598
 C        -4.589979         1.843735        -0.309588
 C        -5.516004         1.154291        -1.223438
 O        -5.343486         2.568845        -1.243348
 H         1.617612        -1.265413        -0.391232
 H         2.306704         0.333596        -0.125398
 H         1.762850        -0.534265         1.295397
 H        -2.650603        -0.561009        -1.032102
 H        -3.699476        -0.114365         1.536483
 H        -2.572894         2.185794        -0.051233
 H        -2.943631         1.670434        -1.814429
 H        -4.926675         1.982447         0.808049
 H        -5.032777         0.484178        -2.014012
 H        -6.534213         0.859449        -0.900542
