19
Iteration:  4889
 C         0.819079        -0.208890        -0.914962
 C        -0.360209        -0.055407        -0.237972
 C        -1.542330         0.084739         0.063353
 C        -2.895908         0.196990         0.754839
 O        -2.799245         0.241985         2.168064
 C        -3.717884         1.455197         0.471464
 C        -4.654688         1.426782        -0.731208
 C        -4.339350         0.939571        -2.158254
 O        -4.442011         2.343950        -1.887895
 H         1.524066         0.558644        -0.700763
 H         1.337716        -1.187976        -0.682686
 H         0.740917        -0.151185        -2.001597
 H        -3.394651        -0.754465         0.440272
 H        -2.304876        -0.609408         2.431420
 H        -4.316914         1.532613         1.467430
 H        -3.122618         2.378635         0.522597
 H        -5.727620         1.298262        -0.555077
 H        -3.306856         0.616409        -2.523610
 H        -5.244061         0.485414        -2.578630
