19
Iteration:  2197charge 0 multiplicity 1
 C         1.470411        -0.358920         0.597052
 C         0.099434        -0.067656         0.004374
 C        -0.992441         0.250525        -0.280027
 C        -2.505496         0.267753        -0.268772
 O        -3.155982        -0.123962         1.050317
 C        -3.092832         1.535373        -0.830561
 C        -4.527488         1.742483        -0.404034
 C        -5.451358         0.902858        -0.947321
 O        -5.444455         2.279697        -1.425048
 H         1.291600        -0.952515         1.480018
 H         2.201733        -0.712199        -0.073718
 H         1.959739         0.568147         0.909658
 H        -2.921530        -0.512236        -1.007145
 H        -3.090227         0.779385         1.530189
 H        -2.481108         2.518468        -0.620056
 H        -3.015955         1.504450        -1.913001
 H        -4.683696         1.886183         0.693870
 H        -5.277016         0.199550        -1.795280
 H        -6.379962         0.551583        -0.418801
