19
Iteration:  3992charge 0 multiplicity 1
 C         1.179608        -0.450345        -0.286744
 C        -0.197625         0.000698        -0.082566
 C        -1.396636         0.178437        -0.108313
 C        -2.663131         0.244300         0.491411
 O        -2.664246         0.377475         2.030920
 C        -3.415852         1.560399         0.060919
 C        -4.617582         1.167945        -0.865747
 C        -4.724304         1.186408        -2.309265
 O        -5.348034         2.197971        -1.470450
 H         1.226945        -0.982724        -1.279226
 H         1.829305         0.392531        -0.562105
 H         1.908099        -1.131409         0.346432
 H        -3.286072        -0.668331         0.230660
 H        -2.455590        -0.534648         2.276561
 H        -3.818666         2.083230         0.982615
 H        -2.747128         2.360509        -0.246481
 H        -5.006115         0.242695        -0.504466
 H        -4.038632         1.605552        -2.989244
 H        -5.385685         0.383799        -2.743118
