19
Iteration:  3645
 C         1.379190        -0.182653         0.277009
 C        -0.003131         0.042733         0.062816
 C        -1.213178        -0.072600        -0.106175
 C        -2.623560         0.221460        -0.044751
 O        -3.177476        -0.113433         1.308243
 C        -2.929363         1.563867        -0.627342
 C        -4.411704         1.805759        -0.497504
 C        -5.575066         0.983580        -1.093293
 O        -5.158508         2.200339        -1.718487
 H         1.575996        -1.232083         0.447771
 H         2.029332         0.112174        -0.683297
 H         1.755654         0.450508         1.122699
 H        -3.154608        -0.476758        -0.698476
 H        -2.441984        -0.404368         1.826222
 H        -2.403080         2.311264        -0.079892
 H        -2.873322         1.435458        -1.713020
 H        -4.701589         2.557220         0.219836
 H        -5.343403         0.022818        -1.635617
 H        -6.544318         1.077907        -0.648968
