19
Iteration:  3660
 C         1.441179        -0.132388         0.173136
 C        -0.050451         0.031483         0.147089
 C        -1.256701        -0.076015        -0.143855
 C        -2.665032         0.070814         0.070632
 O        -3.128868        -0.116317         1.425543
 C        -2.979864         1.558392        -0.638415
 C        -4.490499         1.910498        -0.525786
 C        -5.472665         1.013437        -1.166041
 O        -5.165066         2.234990        -1.771967
 H         1.622011        -1.237712         0.280707
 H         1.782204         0.228942        -0.758536
 H         1.889004         0.356031         1.014282
 H        -3.216246        -0.590485        -0.655682
 H        -2.457357        -0.770185         1.823207
 H        -2.281271         2.531862        -0.268896
 H        -2.467768         1.383709        -1.614974
 H        -4.913464         2.263981         0.444103
 H        -5.113114         0.180325        -1.753740
 H        -6.454299         0.835691        -0.722777
