19
Iteration:  2692charge 0 multiplicity 1
 C         1.013685        -0.099359        -0.650003
 C        -0.373434         0.124087        -0.322413
 C        -1.511534         0.000272        -0.088453
 C        -2.815719         0.080708         0.743884
 O        -2.526151         0.027494         2.155830
 C        -3.828573         1.176161         0.314596
 C        -4.418588         1.026954        -1.101349
 C        -4.131021         2.001320        -2.207535
 O        -5.350587         2.126794        -1.419011
 H         1.223487        -0.308820        -1.681719
 H         1.659083         0.677987        -0.203216
 H         1.439498        -1.074114        -0.287561
 H        -3.353366        -0.928983         0.606909
 H        -1.732034        -0.599286         2.227113
 H        -4.774467         1.223818         0.838095
 H        -3.478218         2.125414         0.418794
 H        -4.748057         0.059109        -1.389413
 H        -3.307466         2.707646        -2.059866
 H        -4.116848         1.521478        -3.242815
