19
Iteration:  4715charge 0 multiplicity 1
 C         1.050181        -0.517711        -0.690501
 C        -0.282051        -0.249555        -0.215097
 C        -1.446684        -0.013657         0.133565
 C        -2.921323         0.164581         0.795734
 O        -2.684104         0.603231         2.142254
 C        -3.716834         1.268827         0.162939
 C        -4.407400         1.058258        -1.065879
 C        -4.313544         1.753599        -2.410011
 O        -5.177450         2.221268        -1.413914
 H         1.655639         0.366370        -0.718595
 H         1.745989        -1.167889         0.001557
 H         1.126456        -1.040637        -1.671660
 H        -3.532430        -0.774230         0.637373
 H        -1.911355         0.192599         2.603995
 H        -4.574660         1.352125         0.868412
 H        -2.991054         2.034431         0.252747
 H        -5.071124         0.154893        -0.999159
 H        -3.510795         2.464794        -2.661571
 H        -4.694095         1.261915        -3.214631
