19
Iteration:  1112charge 0 multiplicity 1
 C         1.458069        -0.117568        -0.216398
 C         0.031106        -0.118595        -0.194252
 C        -1.155241        -0.065023         0.090447
 C        -2.626752         0.162081         0.203314
 O        -3.234795        -0.244745         1.519565
 C        -3.218332         1.614510        -0.187026
 C        -4.688116         1.614384        -0.470218
 C        -5.196196         1.065665        -1.777943
 O        -5.103526         2.465219        -1.444695
 H         1.720741        -0.917710         0.545396
 H         1.995717        -0.530866        -1.091328
 H         1.888374         0.852520         0.117646
 H        -3.138371        -0.539144        -0.408576
 H        -2.615686         0.178525         2.188817
 H        -2.860345         2.289368         0.566935
 H        -2.736187         1.890534        -1.164036
 H        -5.449755         1.541471         0.272910
 H        -4.372450         0.613225        -2.409223
 H        -6.274020         0.818999        -1.931519
