19
Iteration:  4789
 C         0.991872        -0.351727        -0.735260
 C        -0.412081        -0.236432        -0.120179
 C        -1.597834        -0.013761         0.052004
 C        -2.827788         0.284580         0.674559
 O        -2.786702         0.236898         2.178185
 C        -3.495512         1.594546         0.195954
 C        -4.453009         1.227504        -0.863026
 C        -4.283305         1.268351        -2.302479
 O        -5.058304         2.299549        -1.583814
 H         1.574916         0.550274        -0.616227
 H         1.700723        -1.068291        -0.275847
 H         1.098057        -0.635405        -1.808031
 H        -3.423518        -0.547369         0.242856
 H        -1.935948         0.175657         2.542232
 H        -4.170685         1.747404         1.182207
 H        -2.846802         2.446478         0.000396
 H        -5.271289         0.551927        -0.641720
 H        -3.339785         1.811488        -2.677557
 H        -4.929118         0.705845        -2.997165
