19
Iteration:  4618charge 0 multiplicity 1
 C         0.757932        -0.621843        -0.767731
 C        -0.529289        -0.185170        -0.347683
 C        -1.684335         0.137078         0.044831
 C        -2.895913         0.272362         0.951666
 O        -2.482828         0.546539         2.271707
 C        -3.807830         1.394030         0.259992
 C        -4.071987         1.068426        -1.140727
 C        -4.010723         2.090884        -2.256149
 O        -5.288482         1.692468        -1.585090
 H         1.343113         0.236716        -0.992567
 H         1.296006        -1.088659         0.130398
 H         0.746019        -1.342022        -1.601446
 H        -3.337357        -0.714806         1.014419
 H        -1.594556         0.187211         2.326472
 H        -4.690105         1.479710         0.810256
 H        -3.142365         2.249092         0.336727
 H        -3.954866        -0.030054        -1.278152
 H        -3.625147         3.160764        -2.162501
 H        -3.793941         1.761042        -3.221429
