19
Iteration:  3105
 C         1.125929        -0.220435        -0.519527
 C        -0.256166         0.044073        -0.198056
 C        -1.404423         0.274603         0.013021
 C        -2.799719         0.167650         0.610126
 O        -2.561047        -0.074702         2.024324
 C        -3.777482         1.292804         0.376721
 C        -4.633244         1.114405        -0.880334
 C        -4.309414         1.614855        -2.300213
 O        -5.335714         2.268662        -1.601695
 H         1.832739         0.618376        -0.291820
 H         1.649559        -1.108254        -0.161104
 H         1.239581        -0.413434        -1.630515
 H        -3.162251        -0.785618         0.219882
 H        -1.678367        -0.409491         2.090559
 H        -4.394994         1.251888         1.259169
 H        -3.240127         2.263314         0.343389
 H        -5.263729         0.223133        -0.908420
 H        -3.488521         2.261822        -2.396258
 H        -4.491535         1.137160        -3.232770
