19
Iteration:  4446
 C         0.346348        -0.339380        -1.360264
 C        -0.793709        -0.206536        -0.369757
 C        -1.691690         0.112171         0.393660
 C        -2.967280         0.223355         1.172658
 O        -2.596221         0.586188         2.459329
 C        -3.842736         1.403827         0.375334
 C        -3.903050         1.026789        -1.080820
 C        -3.559856         1.971992        -2.186257
 O        -4.977728         1.498102        -1.838429
 H         0.316961         0.609460        -2.087627
 H         1.297343        -0.372659        -0.793655
 H         0.253351        -1.221088        -2.023893
 H        -3.633376        -0.643614         1.297514
 H        -1.693623         1.012867         2.674649
 H        -4.813904         1.469449         0.910246
 H        -3.269547         2.385039         0.622221
 H        -3.632135         0.085536        -1.437435
 H        -3.472480         3.111886        -2.077376
 H        -3.214893         1.483668        -3.066755
