19
Iteration:  2200charge 0 multiplicity 1
 C         1.447246        -0.362131         0.611193
 C         0.108561        -0.053475         0.006501
 C        -0.996410         0.263225        -0.278963
 C        -2.489894         0.242959        -0.280915
 O        -3.154518        -0.105235         1.016813
 C        -3.090587         1.507669        -0.856156
 C        -4.504292         1.772630        -0.350308
 C        -5.471845         0.917547        -0.939471
 O        -5.459497         2.265719        -1.433920
 H         1.277567        -0.916375         1.501182
 H         2.156982        -0.716703        -0.113457
 H         2.023211         0.454840         1.061494
 H        -2.844405        -0.561113        -1.030237
 H        -3.036219         0.716457         1.523922
 H        -2.540155         2.493249        -0.626006
 H        -3.067390         1.523374        -1.949096
 H        -4.578487         1.938489         0.763228
 H        -5.247081         0.221939        -1.732970
 H        -6.355307         0.410531        -0.430262
