19
Iteration:  1915charge 0 multiplicity 1
 C         1.100974        -0.021389        -0.821745
 C        -0.246159        -0.068797        -0.174058
 C        -1.391499         0.075555         0.169090
 C        -2.692220         0.170315         0.750146
 O        -2.786970         0.075513         2.098982
 C        -3.606645         1.477386         0.327645
 C        -4.664695         1.202525        -0.811669
 C        -4.371455         1.262611        -2.300564
 O        -5.141973         2.259972        -1.690821
 H         1.854891         0.505032        -0.188331
 H         1.574601        -1.066815        -0.764035
 H         1.143389         0.241699        -1.926991
 H        -3.225926        -0.679715         0.202426
 H        -2.955285        -0.856467         2.425822
 H        -4.203912         1.761976         1.185491
 H        -2.942499         2.253279         0.129850
 H        -5.475985         0.560588        -0.414338
 H        -3.390516         1.581587        -2.610521
 H        -5.044073         0.752308        -2.959803
