19
Iteration:  4438
 C         0.245769        -0.283036        -1.265701
 C        -0.780962        -0.260288        -0.372406
 C        -1.718557         0.149307         0.296607
 C        -2.910000         0.267713         1.150640
 O        -2.571840         0.544638         2.533038
 C        -3.798804         1.393296         0.400309
 C        -3.893347         0.969359        -1.063633
 C        -3.593768         1.951308        -2.213951
 O        -4.964345         1.548519        -1.876106
 H         0.260993         0.592251        -1.991593
 H         1.242491        -0.331580        -0.858531
 H         0.232466        -1.206143        -1.900583
 H        -3.447243        -0.684644         1.084407
 H        -1.716941         1.109435         2.392899
 H        -4.852131         1.491255         0.765424
 H        -3.439041         2.382017         0.439110
 H        -3.727315        -0.134911        -1.206691
 H        -3.319029         2.983625        -1.955972
 H        -3.246796         1.632812        -3.171354
