19
Iteration:   206
 C         1.413764        -0.100763         0.511129
 C         0.081548        -0.132927         0.031099
 C        -1.087461        -0.136554        -0.304726
 C        -2.515689         0.104729        -0.432699
 O        -3.105583        -0.432655         0.785094
 C        -3.050534         1.615826        -0.531360
 C        -4.522386         1.803572        -0.241792
 C        -5.586649         1.178147        -1.025865
 O        -5.314470         2.527651        -1.247033
 H         1.885565        -1.105665         0.506663
 H         2.045437         0.599773        -0.083265
 H         1.405646         0.259117         1.569107
 H        -3.056396        -0.323321        -1.338540
 H        -2.572835        -1.155401         1.124406
 H        -2.439586         2.275149         0.156264
 H        -2.812769         1.959458        -1.623239
 H        -4.749791         2.227265         0.746127
 H        -5.147238         0.440500        -1.824442
 H        -6.628564         0.907711        -0.672633
