19
Iteration:  1852
 C         0.947126        -0.284728        -0.674041
 C        -0.434754         0.195234        -0.318555
 C        -1.651238         0.360737        -0.118083
 C        -2.872226         0.219155         0.657488
 O        -2.578367         0.071457         2.004763
 C        -3.833460         1.396456         0.348257
 C        -4.589721         1.045416        -0.818663
 C        -3.971418         1.329506        -2.145609
 O        -5.021833         2.168708        -1.511285
 H         1.657558         0.373156        -0.192169
 H         0.918882        -1.242963        -0.162073
 H         1.123724        -0.481937        -1.711478
 H        -3.170050        -0.827157         0.428042
 H        -1.726161         0.569562         2.184005
 H        -4.557355         1.362727         1.190692
 H        -3.225255         2.294537         0.279711
 H        -5.270388         0.153747        -0.650821
 H        -2.894454         1.760666        -2.230475
 H        -4.376965         0.655088        -2.930975
