19
Iteration:  1868
 C         0.951166        -0.262349        -0.633829
 C        -0.350529         0.152020        -0.411443
 C        -1.504700         0.311674        -0.040524
 C        -2.852183         0.257133         0.607577
 O        -2.670675         0.059212         2.085048
 C        -3.758447         1.416225         0.451657
 C        -4.603086         1.012474        -0.821398
 C        -4.121415         1.313984        -2.171503
 O        -5.043630         2.195644        -1.592640
 H         1.708956         0.397484        -0.145422
 H         1.276150        -1.272911        -0.309468
 H         1.005238        -0.213971        -1.764021
 H        -3.403735        -0.545570         0.123722
 H        -1.719075         0.016882         2.241039
 H        -4.293574         1.631495         1.391832
 H        -3.323974         2.409056         0.081534
 H        -5.363633         0.264061        -0.784792
 H        -3.101398         1.738532        -2.165342
 H        -4.478187         0.681476        -3.040381
