19
Iteration:  2688
 C         1.056506        -0.120110        -0.663410
 C        -0.329199         0.135093        -0.280979
 C        -1.531898         0.026337        -0.074391
 C        -2.838194         0.052356         0.727622
 O        -2.518373         0.038018         2.127272
 C        -3.806363         1.164746         0.300825
 C        -4.439237         1.060863        -1.093008
 C        -4.126809         1.956508        -2.221242
 O        -5.376574         2.130421        -1.392588
 H         1.195034        -0.274397        -1.761010
 H         1.759181         0.556691        -0.205846
 H         1.429792        -1.031332        -0.128074
 H        -3.383344        -0.843976         0.469594
 H        -1.918119        -0.694631         2.247238
 H        -4.840856         1.243184         0.830071
 H        -3.424771         2.310424         0.367207
 H        -4.787712         0.014977        -1.378605
 H        -3.365274         2.697166        -2.015203
 H        -4.158968         1.610814        -3.244880
