19
Iteration:  3830
 C         1.335359        -0.215679        -0.465820
 C        -0.078052        -0.239271        -0.122106
 C        -1.121496         0.045448         0.407169
 C        -2.573771         0.161532         0.581737
 O        -3.107181         0.334660         1.857050
 C        -3.248065         1.343994        -0.333299
 C        -4.682632         1.170100        -0.794932
 C        -4.971609         1.242088        -2.230025
 O        -5.258479         2.389956        -1.344665
 H         1.544574        -1.020894        -1.078223
 H         1.439440         0.705300        -0.996470
 H         1.851147        -0.213120         0.480519
 H        -3.008607        -0.775379         0.133235
 H        -2.605523         0.498950         2.631639
 H        -3.297442         2.232125         0.326164
 H        -2.465413         1.655970        -1.108650
 H        -5.410188         0.671197        -0.220809
 H        -4.168090         1.330260        -3.010435
 H        -5.945631         0.822668        -2.586389
