19
Iteration:  2924charge 0 multiplicity 1
 C         0.047781         0.467573        -1.528185
 C        -0.994198         0.191643        -0.552886
 C        -1.736446        -0.008715         0.378452
 C        -2.974143        -0.122786         1.101500
 O        -2.710282         0.149798         2.473956
 C        -3.866083         0.911858         0.443277
 C        -3.957808         0.926371        -1.045446
 C        -3.167998         1.792420        -1.985126
 O        -4.555530         1.978250        -1.764564
 H        -0.272973         1.335312        -2.073069
 H         0.922525         0.533751        -0.850582
 H         0.212789        -0.382340        -2.181195
 H        -3.242032        -1.149797         0.915157
 H        -3.365667         0.769295         2.889678
 H        -4.990364         0.739942         0.772369
 H        -3.629821         1.882316         0.904718
 H        -4.036308        -0.086148        -1.447334
 H        -2.627553         2.758944        -1.763573
 H        -2.900874         1.228085        -2.968499
