19
Iteration:  4009
 C         1.163360        -0.398180        -0.396749
 C        -0.235303        -0.058751        -0.191641
 C        -1.343747         0.202826         0.112660
 C        -2.745933         0.307684         0.608272
 O        -2.603509         0.311747         1.996629
 C        -3.445611         1.577997         0.044716
 C        -4.548477         1.172023        -0.854884
 C        -4.698536         1.173526        -2.321453
 O        -5.346261         2.167619        -1.524594
 H         1.345771        -1.019956        -1.295115
 H         1.841664         0.452322        -0.335985
 H         1.294771        -0.942042         0.479847
 H        -3.325908        -0.493375         0.120657
 H        -2.713022        -0.607647         2.194183
 H        -3.860149         2.024592         0.937597
 H        -2.702529         2.195529        -0.563553
 H        -5.250554         0.513995        -0.202090
 H        -3.776022         1.583888        -2.863882
 H        -5.396701         0.505107        -2.762468
