19
Iteration:   895charge 0 multiplicity 1
 C         1.269679         0.022436         0.569531
 C         0.094886         0.035715        -0.261637
 C        -1.109548        -0.177322        -0.376854
 C        -2.611520        -0.164384        -0.231534
 O        -3.110365        -0.119420         1.183199
 C        -2.994236         1.307101        -0.743923
 C        -4.499139         1.633667        -0.424856
 C        -5.568450         1.215924        -1.212976
 O        -5.197582         2.564119        -1.131992
 H         1.329948         0.850260         1.327377
 H         1.385122        -0.897110         1.161434
 H         2.172843         0.017340        -0.081657
 H        -2.967069        -0.971890        -0.933911
 H        -2.392999        -0.242402         1.767933
 H        -2.324894         2.093430        -0.326806
 H        -2.899726         1.323401        -1.940050
 H        -4.459819         1.883815         0.625870
 H        -5.291576         0.783666        -2.090936
 H        -6.603466         1.161333        -0.895472
