19
Iteration:  2677charge 0 multiplicity 1
 C         1.144484        -0.168998        -0.634811
 C        -0.328642         0.127074        -0.202238
 C        -1.496186         0.118757        -0.011886
 C        -2.851018         0.005200         0.608385
 O        -2.536251         0.069189         2.048037
 C        -3.805780         1.210069         0.268892
 C        -4.479014         1.080500        -1.062972
 C        -4.142556         1.905922        -2.202985
 O        -5.383798         2.117098        -1.376041
 H         1.187484        -0.254055        -1.753987
 H         1.820243         0.652763        -0.471346
 H         1.346509        -1.171747        -0.202899
 H        -3.351558        -0.917528         0.353421
 H        -2.323477        -0.831488         2.312568
 H        -4.456839         1.073812         1.231893
 H        -3.106183         2.196086         0.418621
 H        -4.940980         0.058896        -1.253445
 H        -3.468477         2.745094        -2.063360
 H        -4.476346         1.721246        -3.193912
