19
Iteration:  2617
 C         1.308976        -0.206417        -0.594723
 C        -0.140578         0.002980        -0.261570
 C        -1.220371         0.164577         0.182159
 C        -2.666386         0.170070         0.596343
 O        -2.891450        -0.199505         1.923635
 C        -3.626479         1.446096         0.220441
 C        -4.566472         1.100593        -0.948924
 C        -4.539583         1.725409        -2.291377
 O        -5.458531         2.277658        -1.336613
 H         1.641694        -0.654028        -1.539010
 H         2.026459         0.616938        -0.305540
 H         1.683364        -0.859715         0.220798
 H        -3.013806        -0.741020         0.093186
 H        -2.131519        -0.697438         2.193134
 H        -4.194097         1.724816         1.068058
 H        -3.007349         2.259001        -0.029029
 H        -5.148830         0.209228        -0.803867
 H        -3.803982         2.457343        -2.664911
 H        -5.048294         1.187461        -3.174250
