19
Iteration:   359charge 0 multiplicity 1
 C         1.617237        -0.067837         0.036843
 C         0.189144        -0.302815        -0.065871
 C        -1.027329        -0.082438        -0.093389
 C        -2.540870         0.118600        -0.049065
 O        -3.327261        -0.174938         1.238881
 C        -3.134689         1.657148        -0.295420
 C        -4.667397         1.587324        -0.380222
 C        -5.414163         1.073990        -1.511210
 O        -5.276514         2.554433        -1.303512
 H         2.150846        -0.531084        -0.812557
 H         1.841819         1.005388         0.159319
 H         2.021986        -0.706616         0.863866
 H        -3.012551        -0.565536        -0.767747
 H        -3.759339        -1.006033         1.104748
 H        -2.711415         2.221958         0.554250
 H        -2.825711         2.219475        -1.263096
 H        -5.171109         1.685135         0.625176
 H        -4.699877         0.825978        -2.355485
 H        -6.436692         0.567474        -1.515746
