19
Iteration:  3764
 C         1.337423        -0.152878        -0.381632
 C        -0.052505         0.057332         0.090867
 C        -1.243387        -0.007057         0.367058
 C        -2.706424        -0.018231         0.419976
 O        -3.120434         0.192450         1.695563
 C        -3.106607         1.320773        -0.509067
 C        -4.596479         1.498154        -0.581092
 C        -5.132203         1.076090        -1.905763
 O        -5.128414         2.478945        -1.530818
 H         1.387902        -1.141007        -0.752532
 H         1.526582         0.556346        -1.262167
 H         2.050773         0.038474         0.432942
 H        -3.105891        -1.009366        -0.011523
 H        -2.760235        -0.637422         2.164510
 H        -2.620294         2.154931        -0.030977
 H        -2.782002         1.018406        -1.544062
 H        -5.140095         1.346998         0.325136
 H        -4.433532         0.534493        -2.670498
 H        -6.137593         0.720696        -2.015109
