19
Iteration:  3025charge 0 multiplicity 1
 C         0.839303         0.065244        -1.007911
 C        -0.485540         0.169641        -0.365675
 C        -1.645056         0.067666         0.111543
 C        -2.885328         0.003448         0.906112
 O        -2.681224         0.011289         2.322997
 C        -3.877224         1.130196         0.357741
 C        -4.356880         0.992002        -1.050153
 C        -3.840821         1.766896        -2.225535
 O        -5.009238         2.137684        -1.610763
 H         1.292407         1.080376        -1.051045
 H         1.388060        -0.432991        -0.222385
 H         0.683860        -0.396272        -1.974637
 H        -3.362977        -0.958068         0.718286
 H        -2.163341         0.783629         2.523041
 H        -4.680131         1.037376         1.158545
 H        -3.349922         2.078725         0.482688
 H        -4.910608         0.054357        -1.227269
 H        -2.898239         2.336188        -2.023878
 H        -3.923610         1.276206        -3.212389
