19
Iteration:  4727
 C         1.085650        -0.510338        -0.692745
 C        -0.332556        -0.168282        -0.213635
 C        -1.460655        -0.100759         0.151686
 C        -2.734726         0.131935         0.785244
 O        -2.754866         0.558597         2.177522
 C        -3.646289         1.284343         0.250488
 C        -4.479415         1.029072        -1.080841
 C        -4.345785         1.719036        -2.441989
 O        -5.189019         2.310496        -1.477431
 H         1.660141         0.406724        -0.802301
 H         1.442711        -1.256634         0.104615
 H         0.986560        -0.972231        -1.689131
 H        -3.259206        -0.859876         0.830298
 H        -1.914541         0.297177         2.482318
 H        -4.293319         1.556709         1.063733
 H        -3.174030         2.242646         0.027458
 H        -5.111328         0.104942        -1.086646
 H        -3.404513         2.229742        -2.664419
 H        -4.859203         1.332660        -3.284547
