19
Iteration:    27charge 0 multiplicity 1
 C         1.430483        -0.139539         0.091034
 C         0.067282         0.248344        -0.027334
 C        -1.123833         0.100805        -0.010358
 C        -2.551820         0.008966        -0.177461
 O        -3.202822        -0.591875         0.993189
 C        -3.172071         1.344341        -0.359593
 C        -4.611230         1.488126        -0.411315
 C        -5.516734         1.466651        -1.546441
 O        -5.020328         2.645564        -0.964978
 H         1.407286        -1.093310         0.646824
 H         1.875248        -0.452277        -0.855400
 H         2.074024         0.632719         0.527817
 H        -2.806600        -0.576054        -1.129391
 H        -2.972183        -1.544560         1.038729
 H        -2.826128         1.987088         0.468982
 H        -2.759444         1.635004        -1.314532
 H        -4.999095         1.248014         0.581410
 H        -5.133297         1.255078        -2.509177
 H        -6.547324         1.436190        -1.345608
