19
Iteration:  3824
 C         1.269424        -0.203298        -0.447400
 C        -0.070913        -0.224411        -0.109236
 C        -1.117604         0.033323         0.453867
 C        -2.586067         0.158204         0.538077
 O        -3.133910         0.338435         1.831162
 C        -3.248112         1.323956        -0.316931
 C        -4.649484         1.196744        -0.805823
 C        -5.018375         1.251222        -2.242238
 O        -5.214707         2.373202        -1.351636
 H         1.691682        -1.079116        -1.133719
 H         1.566904         0.744314        -1.090383
 H         2.070133        -0.193894         0.356330
 H        -2.772939        -0.887544         0.185839
 H        -2.402925         0.456345         2.455452
 H        -3.322859         2.216213         0.337033
 H        -2.523615         1.757662        -0.959878
 H        -5.354154         0.696258        -0.035843
 H        -4.287090         1.268529        -3.013827
 H        -6.037796         0.806292        -2.337632
