19
Iteration:   750
 C         1.445061        -0.187581        -0.017376
 C         0.013896        -0.011138         0.077012
 C        -1.195337         0.096332        -0.059418
 C        -2.599875         0.126735        -0.069334
 O        -3.133815        -0.325512         1.201858
 C        -3.145027         1.515609        -0.258589
 C        -4.615723         1.528803        -0.410705
 C        -5.253232         1.163662        -1.643695
 O        -5.233229         2.565145        -1.233264
 H         1.828524         0.752587        -0.522111
 H         1.943439        -0.297962         1.007426
 H         1.738069        -1.150664        -0.540500
 H        -3.095428        -0.574405        -0.740558
 H        -2.511211        -1.042483         1.520020
 H        -2.686661         2.200845         0.551884
 H        -2.955314         2.088831        -1.231394
 H        -5.251792         1.350178         0.501702
 H        -4.683088         0.854346        -2.528884
 H        -6.251483         0.794387        -1.669006
