19
Iteration:  2919
 C        -0.017895         0.469381        -1.537181
 C        -0.969447         0.204419        -0.543776
 C        -1.760803         0.025792         0.388479
 C        -2.938159        -0.135335         1.094887
 O        -2.706067         0.130164         2.521191
 C        -3.938821         0.905342         0.467744
 C        -3.936128         0.910810        -1.089168
 C        -3.121141         1.799873        -1.984866
 O        -4.545812         1.983232        -1.787313
 H        -0.214758         1.360450        -2.195709
 H         0.999503         0.549907        -1.108802
 H         0.214457        -0.477316        -2.086357
 H        -3.360224        -1.195395         0.986536
 H        -3.255202         0.777300         2.933079
 H        -4.897893         0.689078         0.889165
 H        -3.623999         1.881601         0.925018
 H        -4.060336        -0.103815        -1.527811
 H        -2.585371         2.719544        -1.888549
 H        -2.968459         1.399399        -2.933267
