19
Iteration:   670charge 0 multiplicity 1
 C         1.351353        -0.164925        -0.162320
 C        -0.046374         0.012006        -0.358280
 C        -1.249443         0.083544        -0.086964
 C        -2.655015         0.125419         0.262333
 O        -3.049729        -0.269579         1.569111
 C        -3.274623         1.525424        -0.013902
 C        -4.769285         1.285836        -0.555388
 C        -4.992571         1.327923        -1.955370
 O        -5.075226         2.520066        -1.240646
 H         2.064109         0.405145        -0.800304
 H         1.608264         0.182184         0.874986
 H         1.715026        -1.221851        -0.286565
 H        -3.297891        -0.527263        -0.338622
 H        -2.667094        -1.116989         1.919686
 H        -3.259543         2.361484         0.739587
 H        -2.835000         1.991114        -0.910827
 H        -5.568060         0.938226         0.102532
 H        -4.114751         1.309545        -2.611917
 H        -6.008104         0.924976        -2.239838
