19
Iteration:  1492charge 0 multiplicity 1
 C         0.480009        -0.076638        -1.228668
 C        -0.772886         0.072973        -0.406572
 C        -1.874780         0.046663         0.034080
 C        -2.931360         0.061051         1.006452
 O        -2.405716         0.526441         2.273448
 C        -4.251065         0.804523         0.443240
 C        -4.227736         0.876623        -1.088679
 C        -3.362164         1.754137        -1.857516
 O        -4.741779         2.178197        -1.642931
 H         0.273760        -0.168699        -2.368772
 H         1.044671         0.908990        -1.189376
 H         1.061589        -0.978435        -0.913955
 H        -3.258948        -1.004676         1.262532
 H        -1.715647         1.146060         1.878911
 H        -5.013388         0.209422         0.908171
 H        -4.484317         1.825802         0.756369
 H        -4.513729         0.007741        -1.679270
 H        -2.630483         2.396543        -1.393199
 H        -3.103277         1.510626        -2.893133
