19
Iteration:  4805charge 0 multiplicity 1
 C         0.981245        -0.310376        -0.712687
 C        -0.354814        -0.253369        -0.257175
 C        -1.522622        -0.034054         0.058441
 C        -2.897049         0.288142         0.708043
 O        -2.848882         0.200982         2.100360
 C        -3.514077         1.661860         0.368679
 C        -4.453216         1.302339        -0.782851
 C        -4.272977         1.233612        -2.296048
 O        -5.015530         2.277952        -1.668712
 H         1.530127         0.664957        -0.547929
 H         1.603792        -1.121366        -0.235980
 H         0.892978        -0.574061        -1.776369
 H        -3.663018        -0.528832         0.631854
 H        -1.934793         0.094574         2.140144
 H        -4.140380         2.054627         1.110265
 H        -2.735277         2.383154        -0.008182
 H        -5.155636         0.533504        -0.365257
 H        -3.367122         1.356634        -2.790363
 H        -4.792146         0.416284        -2.826504
