19
Iteration:  1698charge 0 multiplicity 1
 C         0.402636         0.071861        -1.462131
 C        -0.713800        -0.126237        -0.398210
 C        -1.622603        -0.081194         0.360678
 C        -2.885454         0.050017         1.121632
 O        -2.757975         0.407294         2.510622
 C        -3.804800         1.161602         0.401101
 C        -4.022052         0.984633        -1.099536
 C        -3.535901         1.877101        -2.192022
 O        -4.924405         1.950611        -1.723244
 H         0.219857         1.047673        -1.840843
 H         1.418616         0.092287        -1.153295
 H         0.162236        -0.605125        -2.259163
 H        -3.239535        -0.938997         1.056283
 H        -2.852279        -0.376554         3.032674
 H        -4.754600         1.212391         1.051117
 H        -3.394753         2.156751         0.665755
 H        -4.057413        -0.051934        -1.503956
 H        -2.816647         2.670007        -1.934381
 H        -3.567299         1.402749        -3.200267
