19
Iteration:  1400charge 0 multiplicity 1
 C         0.771647        -0.079291        -0.980934
 C        -0.650241        -0.034344        -0.392735
 C        -1.697175         0.030066         0.146029
 C        -2.890911        -0.008404         0.905524
 O        -2.529959         0.160705         2.337344
 C        -3.789306         1.230914         0.416109
 C        -4.271689         1.047657        -1.043981
 C        -3.906950         1.780500        -2.307092
 O        -5.009949         2.157789        -1.574983
 H         0.795981        -0.674265        -1.884592
 H         1.134587         0.853076        -1.392232
 H         1.450924        -0.625637        -0.325628
 H        -3.500724        -0.961500         0.757085
 H        -1.936223         0.923703         2.314365
 H        -4.765972         1.229916         0.983213
 H        -3.368709         2.208488         0.682794
 H        -4.748640         0.053278        -1.277837
 H        -3.198389         2.590735        -2.378836
 H        -3.995545         1.287670        -3.303243
