19
Iteration:  1833
 C         0.864909        -0.290810        -0.622437
 C        -0.468298         0.191522        -0.367658
 C        -1.669502         0.298066        -0.143323
 C        -2.851524         0.177880         0.655611
 O        -2.397974         0.088333         2.114592
 C        -3.896512         1.269376         0.500947
 C        -4.588996         1.033253        -0.865772
 C        -3.931999         1.371136        -2.134207
 O        -5.053387         2.233360        -1.670572
 H         1.634597         0.476651        -0.486659
 H         1.072074        -1.260055        -0.197960
 H         0.932198        -0.404833        -1.706834
 H        -3.376333        -0.732129         0.527411
 H        -2.134990         1.015791         2.261641
 H        -4.640247         1.295634         1.358843
 H        -3.326789         2.291182         0.398315
 H        -5.339115         0.249327        -0.898525
 H        -2.941892         1.949642        -2.192118
 H        -4.139224         0.960574        -3.175220
