19
Iteration:  1068charge 0 multiplicity 1
 C         1.461786        -0.157866        -0.242236
 C         0.058151        -0.078623         0.227001
 C        -1.140479         0.073376         0.256692
 C        -2.559806         0.079813         0.100658
 O        -3.352179        -0.298608         1.260723
 C        -2.972696         1.592229        -0.481438
 C        -4.568676         1.662071        -0.479370
 C        -5.406574         1.045719        -1.583672
 O        -5.203830         2.499639        -1.386904
 H         2.245569        -0.643646         0.443335
 H         1.379985        -0.780649        -1.167139
 H         1.812908         0.869230        -0.542001
 H        -2.786149        -0.657110        -0.702448
 H        -2.864851         0.009764         2.083470
 H        -2.604446         2.250388         0.305336
 H        -2.355553         1.795799        -1.378984
 H        -4.916609         1.484531         0.515369
 H        -5.077486         0.821747        -2.622170
 H        -6.403480         0.625473        -1.223585
