19
Iteration:  1478
 C         0.540541        -0.047457        -1.153829
 C        -0.697092         0.055562        -0.460858
 C        -1.817603        -0.062026        -0.027782
 C        -2.980926         0.093344         0.950175
 O        -2.396663         0.519583         2.184793
 C        -4.260667         0.867060         0.502498
 C        -4.326511         0.928118        -1.002505
 C        -3.374544         1.787975        -1.831932
 O        -4.774512         2.128660        -1.694109
 H         0.348900        -0.302639        -2.149113
 H         1.191086         0.777499        -1.072708
 H         1.163856        -0.809633        -0.723817
 H        -3.296064        -0.994444         1.102742
 H        -1.709739         1.152331         2.223717
 H        -5.277190         0.410916         0.684800
 H        -4.035741         1.770975         1.001951
 H        -4.803863         0.005882        -1.394944
 H        -2.708694         2.322359        -1.193710
 H        -3.112654         1.423382        -2.766018
