19
Iteration:  4406charge 0 multiplicity 1
 C         0.386843        -0.244656        -1.321221
 C        -0.742312        -0.217116        -0.402318
 C        -1.712749         0.030603         0.305310
 C        -2.917338         0.298235         1.152943
 O        -2.524333         0.534198         2.536182
 C        -3.903752         1.403482         0.377005
 C        -4.068193         0.962300        -1.085604
 C        -3.519626         1.757454        -2.161497
 O        -4.943612         1.723669        -1.837193
 H         0.245947         0.569357        -2.053716
 H         1.288993        -0.133282        -0.743857
 H         0.294905        -1.248103        -1.795432
 H        -3.475456        -0.661074         1.151551
 H        -2.292636         1.426258         2.375363
 H        -4.950481         1.422820         0.749682
 H        -3.497120         2.355529         0.234562
 H        -4.066464        -0.170042        -1.119267
 H        -3.038494         2.720603        -1.977683
 H        -3.277732         1.289261        -3.090320
