19
Iteration:  1541
 C         0.357720        -0.017625        -1.561478
 C        -0.765497        -0.030705        -0.649277
 C        -1.605573        -0.055673         0.348817
 C        -2.868731         0.080632         1.083638
 O        -2.878249         0.621918         2.442898
 C        -4.013435         0.800908         0.346706
 C        -4.112639         0.895853        -1.071419
 C        -3.340985         1.832651        -1.827408
 O        -4.682973         2.052694        -1.620163
 H         0.013969         0.135937        -2.604916
 H         1.093101         0.802568        -1.414334
 H         0.782543        -1.047981        -1.565301
 H        -3.089572        -0.923675         1.379325
 H        -2.470362         1.487720         2.425067
 H        -4.995311         0.375416         0.771801
 H        -3.921197         1.826181         0.811779
 H        -4.539372         0.038029        -1.614869
 H        -2.659164         2.524007        -1.215868
 H        -3.027677         1.508480        -2.881976
