19
Iteration:  4692charge 0 multiplicity 1
 C         0.924910        -0.500259        -0.645143
 C        -0.387477        -0.348789        -0.187794
 C        -1.508772         0.009800         0.107283
 C        -2.737111         0.263105         0.754421
 O        -2.581431         0.583261         2.115186
 C        -3.714159         1.316962         0.172115
 C        -4.414987         1.001014        -1.093904
 C        -4.165556         1.829993        -2.356164
 O        -5.326902         2.133769        -1.435608
 H         1.414131         0.459376        -0.683877
 H         1.590745        -1.088711         0.096122
 H         0.983018        -1.059300        -1.619800
 H        -3.361376        -0.674448         0.562546
 H        -2.059912         0.075165         2.714591
 H        -4.383931         1.339771         1.069199
 H        -3.106226         2.167333         0.055727
 H        -4.757466        -0.063440        -1.159826
 H        -3.343504         2.557283        -2.325839
 H        -4.401526         1.556458        -3.313790
