19
Iteration:  2317
 C         1.428391        -0.162349         0.702700
 C         0.117351        -0.010674         0.060876
 C        -1.015763         0.113734        -0.223260
 C        -2.467273         0.112222        -0.407625
 O        -3.220494        -0.143114         0.873050
 C        -3.066431         1.462932        -1.012528
 C        -4.389044         1.816307        -0.485544
 C        -5.581011         0.992343        -0.691429
 O        -5.435049         2.292016        -1.355375
 H         1.421500        -1.196011         1.164840
 H         2.250237         0.103142         0.035755
 H         1.482954         0.594028         1.526251
 H        -2.753238        -0.685126        -1.033077
 H        -2.754545        -0.504156         1.608771
 H        -2.379459         2.217471        -0.683954
 H        -2.911753         1.375535        -2.052823
 H        -4.160927         2.351888         0.460738
 H        -5.525704         0.115977        -1.348532
 H        -6.500472         0.945711        -0.048030
