19
Iteration:  4424
 C         0.321462        -0.282436        -1.310421
 C        -0.820101        -0.255420        -0.302986
 C        -1.829309         0.131236         0.279881
 C        -2.877786         0.436739         1.079485
 O        -2.527375         0.506149         2.540576
 C        -3.776670         1.326494         0.397844
 C        -3.902537         0.917259        -1.110618
 C        -3.616465         1.825907        -2.179783
 O        -4.951416         1.651305        -1.898316
 H         0.071143         0.709795        -1.938270
 H         1.231545        -0.143944        -0.694901
 H         0.268981        -1.163894        -1.974843
 H        -3.444157        -0.488952         1.198319
 H        -1.945623         1.157050         2.847268
 H        -4.696269         1.190465         0.993610
 H        -3.283838         2.351338         0.638435
 H        -4.021455        -0.058662        -1.426739
 H        -3.190314         2.794871        -1.726535
 H        -3.297113         1.512631        -3.151355
