19
Iteration:   571
 C         1.286420         0.002454        -0.598171
 C        -0.133726        -0.139886        -0.213180
 C        -1.208998         0.030148         0.339519
 C        -2.613895        -0.000170         0.378448
 O        -3.312044        -0.145237         1.682786
 C        -3.129270         1.438688        -0.052988
 C        -4.576388         1.219043        -0.699945
 C        -4.857947         1.425178        -2.120566
 O        -5.194267         2.526247        -1.178670
 H         1.469893         0.532032        -1.568763
 H         1.697560         0.678887         0.176280
 H         1.897259        -0.907830        -0.750360
 H        -2.977959        -0.897608        -0.165222
 H        -2.776478        -0.572879         2.344013
 H        -3.166310         1.967805         0.964706
 H        -2.333509         1.942658        -0.645139
 H        -5.163783         0.558858        -0.142267
 H        -4.038899         1.629030        -2.818785
 H        -5.709525         0.862606        -2.578147
