19
Iteration:   677
 C         1.376071        -0.152576        -0.123608
 C        -0.051136        -0.067021        -0.394828
 C        -1.207585         0.094027        -0.108796
 C        -2.660091         0.149369         0.214360
 O        -3.053163        -0.276327         1.582216
 C        -3.280459         1.540128         0.021927
 C        -4.736175         1.358526        -0.513463
 C        -5.009133         1.283920        -1.963250
 O        -5.130525         2.527875        -1.249377
 H         1.903821         0.543368        -0.734545
 H         1.493046         0.134589         0.888734
 H         1.751110        -1.137109        -0.122158
 H        -3.240506        -0.459204        -0.552750
 H        -2.671850        -1.127066         1.831900
 H        -3.194604         2.274715         0.742421
 H        -2.662076         1.785656        -0.821628
 H        -5.454856         0.901724         0.126926
 H        -4.177179         1.232795        -2.663977
 H        -5.981399         0.947457        -2.342259
