19
Iteration:  2182
 C         1.467069        -0.283445         0.497441
 C         0.086161        -0.126950         0.008595
 C        -1.035237         0.142450        -0.205622
 C        -2.547839         0.270559        -0.184717
 O        -3.081454        -0.109486         1.085434
 C        -3.031850         1.661411        -0.766459
 C        -4.511343         1.752727        -0.463573
 C        -5.607827         0.813101        -1.121832
 O        -5.387578         2.291290        -1.393593
 H         1.529541        -0.824631         1.515413
 H         2.094252        -0.858272        -0.289227
 H         1.993926         0.672688         0.862740
 H        -2.854166        -0.528800        -0.796706
 H        -3.200733         0.567498         1.771001
 H        -2.537652         2.476909        -0.319611
 H        -2.921520         1.668544        -1.887335
 H        -4.630389         2.210484         0.513846
 H        -5.344424         0.056459        -1.860396
 H        -6.453131         0.483329        -0.507142
