19
Iteration:  3905
 C         1.344445        -0.378577        -0.320358
 C        -0.119932        -0.077544        -0.020408
 C        -1.339056        -0.035570         0.071985
 C        -2.718086         0.251874         0.545683
 O        -2.734695         0.290640         1.963731
 C        -3.364762         1.537087        -0.141798
 C        -4.600239         1.153227        -0.952823
 C        -4.918689         1.274266        -2.365305
 O        -5.364603         2.270002        -1.306041
 H         1.319825        -1.196604        -1.004280
 H         1.816911         0.466318        -0.711397
 H         1.719396        -0.669065         0.685432
 H        -3.180578        -0.607198         0.135537
 H        -2.033455         0.967226         2.224876
 H        -3.813961         2.143153         0.748073
 H        -2.530005         2.159152        -0.658299
 H        -5.191415         0.348825        -0.543602
 H        -4.325507         1.757417        -3.133373
 H        -5.593927         0.560238        -2.788838
