19
Iteration:  2786charge 0 multiplicity 1
 C         0.477104         0.224437        -1.258566
 C        -0.664281         0.055397        -0.425424
 C        -1.673586        -0.003370         0.285037
 C        -2.924370        -0.128251         0.940745
 O        -2.572351         0.204989         2.277815
 C        -3.925325         0.912507         0.440378
 C        -4.128512         0.979423        -1.104854
 C        -3.550540         2.067903        -1.967879
 O        -4.924331         2.012583        -1.702581
 H         0.236873         0.299243        -2.340699
 H         1.187673         0.875977        -0.750360
 H         1.046476        -0.736251        -1.333526
 H        -3.366106        -1.128905         0.812115
 H        -3.199872         0.326488         2.974432
 H        -4.896533         0.597944         0.883643
 H        -3.695623         1.948027         0.911336
 H        -4.461770        -0.014466        -1.557584
 H        -2.966752         2.773328        -1.443621
 H        -3.240815         1.866501        -2.994539
