19
Iteration:   392charge 0 multiplicity 1
 C         1.381487        -0.082687        -0.021163
 C        -0.039956        -0.050664        -0.152112
 C        -1.235449        -0.007220        -0.025075
 C        -2.656151         0.035617         0.117542
 O        -3.009695        -0.326272         1.379826
 C        -3.059916         1.567516        -0.282562
 C        -4.584321         1.613753        -0.440980
 C        -5.222033         1.143928        -1.657387
 O        -5.251093         2.559467        -1.348570
 H         1.875418        -0.382158        -0.968448
 H         1.874272         0.835489         0.358618
 H         1.600941        -0.900489         0.726585
 H        -3.170677        -0.632969        -0.647645
 H        -3.768964        -0.900287         1.334534
 H        -2.839188         2.444806         0.368786
 H        -2.706319         1.852062        -1.353467
 H        -5.033359         1.551280         0.595935
 H        -4.462937         0.830393        -2.456491
 H        -6.193088         0.524824        -1.655586
