19
Iteration:  3670charge 0 multiplicity 1
 C         1.419348        -0.117768         0.114503
 C        -0.033076        -0.011313         0.161930
 C        -1.247843        -0.068724        -0.067722
 C        -2.709945         0.069050         0.043347
 O        -3.079994        -0.091970         1.456702
 C        -3.053128         1.494449        -0.565325
 C        -4.495094         1.909697        -0.585609
 C        -5.401802         0.961735        -1.201992
 O        -5.166622         2.322879        -1.788140
 H         1.792674        -1.183114         0.139172
 H         1.868040         0.320583        -0.796273
 H         1.873071         0.433846         0.921051
 H        -3.242914        -0.729425        -0.536732
 H        -2.546002        -0.822880         1.840473
 H        -2.390543         2.247912         0.101226
 H        -2.888749         1.374292        -1.658381
 H        -4.893334         2.421591         0.299535
 H        -4.983315         0.125979        -1.758385
 H        -6.384232         0.869302        -0.791837
