19
Iteration:  4939
 C         0.736996        -0.094129        -0.981682
 C        -0.647260        -0.001096        -0.466586
 C        -1.689085         0.115344         0.110780
 C        -2.989596         0.195182         0.800878
 O        -2.749145         0.165993         2.243088
 C        -3.821821         1.468462         0.520345
 C        -4.556987         1.446135        -0.760348
 C        -4.254421         0.833183        -2.113667
 O        -4.132909         2.250159        -1.860884
 H         1.510610         0.656953        -0.621971
 H         1.174218        -1.061686        -0.869008
 H         0.884134         0.128869        -2.080719
 H        -3.339773        -0.848408         0.616436
 H        -1.860643         0.274059         2.467593
 H        -4.457214         1.541646         1.368492
 H        -3.210059         2.378216         0.692495
 H        -5.621701         1.623472        -0.543102
 H        -3.334493         0.206436        -2.313509
 H        -4.935650         0.483609        -2.878030
