19
Iteration:  1644
 C         0.150682         0.001043        -1.623884
 C        -0.898762         0.155964        -0.581089
 C        -1.691084         0.070782         0.413229
 C        -2.966936         0.113569         1.111507
 O        -2.889333         0.254376         2.518315
 C        -3.738464         1.319388         0.514893
 C        -3.820876         1.001433        -0.926357
 C        -3.373886         1.869015        -1.983120
 O        -4.746125         1.663973        -1.881063
 H         0.145603         0.634831        -2.466236
 H         1.118712         0.087093        -1.182926
 H         0.187530        -0.994638        -1.983238
 H        -3.300845        -0.898494         0.777099
 H        -2.060008        -0.229846         2.721183
 H        -4.776368         1.288837         1.022362
 H        -3.166406         2.225979         0.793858
 H        -3.997019        -0.063223        -1.120364
 H        -3.163260         2.900438        -1.750186
 H        -2.739545         1.564328        -2.822359
