19
Iteration:  1156
 C         1.216631        -0.181440        -0.173754
 C        -0.204672         0.094376        -0.043374
 C        -1.409685        -0.037384        -0.212372
 C        -2.752130         0.102130         0.263288
 O        -2.773785        -0.270774         1.699832
 C        -3.219329         1.486199        -0.066318
 C        -4.733869         1.596548        -0.484323
 C        -4.993730         1.043290        -1.970229
 O        -5.027941         2.525163        -1.501396
 H         1.614513        -1.168660         0.178500
 H         1.485524        -0.217063        -1.251047
 H         1.813902         0.662438         0.215671
 H        -3.411063        -0.592949        -0.181776
 H        -2.007191         0.270022         2.075866
 H        -3.291747         2.135330         0.759676
 H        -2.770130         2.049152        -0.889724
 H        -5.441877         1.570835         0.339371
 H        -4.068665         1.039490        -2.643156
 H        -5.925805         0.526476        -2.269042
