19
Iteration:   239
 C         1.563048        -0.206333         0.436828
 C         0.169878        -0.243014         0.111750
 C        -0.958049         0.171768        -0.248764
 C        -2.465405         0.186024        -0.390660
 O        -3.085156        -0.452010         0.872754
 C        -3.089169         1.547435        -0.499955
 C        -4.576989         1.642516        -0.384170
 C        -5.874437         1.250730        -1.042110
 O        -5.235250         2.517419        -1.279386
 H         2.113359        -1.137614         0.184888
 H         2.066683         0.616256        -0.138353
 H         1.657811         0.059368         1.529912
 H        -2.792592        -0.484201        -1.303663
 H        -4.073518        -0.579730         0.596614
 H        -2.861644         2.108633         0.453147
 H        -2.815718         2.032682        -1.569843
 H        -4.777119         2.078962         0.640647
 H        -5.674030         0.416954        -1.891562
 H        -6.927850         1.239219        -0.546769
