19
Iteration:  2824charge 0 multiplicity 1
 C         0.321590         0.223977        -1.657228
 C        -0.758097         0.230048        -0.539131
 C        -1.604209         0.153118         0.294119
 C        -2.917706        -0.049097         1.101232
 O        -2.883135         0.213946         2.556105
 C        -3.998045         0.851267         0.413726
 C        -3.985363         0.846851        -1.108136
 C        -3.306287         1.954247        -1.889393
 O        -4.704478         1.992464        -1.663044
 H        -0.122280         0.663406        -2.546529
 H         1.214996         0.823621        -1.358963
 H         0.718087        -0.782819        -1.726445
 H        -3.193891        -1.084791         0.905784
 H        -3.131498        -0.721116         2.853160
 H        -5.025390         0.396981         0.710180
 H        -4.066790         1.933064         0.623062
 H        -4.320007        -0.055616        -1.550035
 H        -2.610363         2.684291        -1.314297
 H        -3.060775         1.908265        -2.973411
