19
Iteration:  4842
 C         0.941765        -0.300608        -0.742701
 C        -0.484821        -0.048519        -0.420976
 C        -1.557171         0.062988         0.128757
 C        -2.887768         0.233768         0.773363
 O        -2.802022         0.093804         2.222406
 C        -3.517316         1.585942         0.220938
 C        -4.644912         1.348570        -0.728687
 C        -4.221068         1.064776        -2.083508
 O        -4.830701         2.346125        -1.831242
 H         1.607666         0.559305        -0.530965
 H         1.296270        -1.174000        -0.264506
 H         1.079252        -0.430682        -1.841979
 H        -3.430404        -0.488130         0.182820
 H        -1.999194        -0.320203         2.402689
 H        -3.634166         2.251437         1.074587
 H        -2.858113         2.175667        -0.380100
 H        -5.646628         1.040906        -0.462568
 H        -3.049934         1.139096        -2.104244
 H        -4.778884         0.444975        -2.825760
