19
Iteration:  2653
 C         1.170450        -0.203191        -0.626631
 C        -0.148179        -0.032339        -0.156344
 C        -1.365762         0.249999         0.013218
 C        -2.680372         0.095320         0.541759
 O        -2.747113         0.035474         1.940613
 C        -3.716865         1.223278         0.223510
 C        -4.529653         1.082116        -0.969580
 C        -4.296129         1.797468        -2.163983
 O        -5.440267         2.195585        -1.329534
 H         1.331502        -0.359491        -1.730476
 H         1.694455         0.751663        -0.390333
 H         1.456310        -1.067796        -0.024899
 H        -3.095930        -0.731695         0.004165
 H        -2.917185        -0.844429         2.241528
 H        -4.353650         1.175348         1.163552
 H        -3.183454         2.317278         0.175233
 H        -5.089750         0.109772        -1.105814
 H        -3.543997         2.593634        -2.036906
 H        -4.498012         1.403033        -3.137949
