19
Iteration:   625charge 0 multiplicity 1
 C         1.312175        -0.124098        -0.514978
 C         0.014435         0.063528         0.129397
 C        -1.211205         0.045618         0.149248
 C        -2.627469         0.003756         0.336147
 O        -3.000806        -0.297971         1.712062
 C        -3.334090         1.317466        -0.123884
 C        -4.745367         1.383629        -0.656804
 C        -4.969771         1.490409        -2.081196
 O        -5.218614         2.607109        -1.353813
 H         1.279475         0.439580        -1.450178
 H         2.226511         0.076804         0.047327
 H         1.359183        -1.214595        -0.673353
 H        -2.954059        -0.881426        -0.194883
 H        -2.455431        -1.052312         2.018461
 H        -3.296932         1.881816         0.806117
 H        -2.565271         1.707430        -0.740765
 H        -5.313256         0.923965         0.044955
 H        -4.118926         1.630526        -2.750647
 H        -5.914579         0.981568        -2.415892
