19
Iteration:  2251charge 0 multiplicity 1
 C         1.383529        -0.384059         0.697753
 C         0.085388         0.026962         0.340046
 C        -0.974331         0.210796        -0.351580
 C        -2.418949         0.245852        -0.439581
 O        -3.049663        -0.058279         0.866856
 C        -2.994082         1.573111        -1.042974
 C        -4.407243         1.718798        -0.521414
 C        -5.692916         0.950918        -0.715069
 O        -5.552466         2.213388        -1.332241
 H         1.425756        -1.182584         1.479891
 H         1.997656        -0.458893        -0.207050
 H         1.901960         0.339390         1.364677
 H        -2.763017        -0.426543        -1.214369
 H        -2.359258        -0.701872         1.241311
 H        -2.602688         2.578159        -0.717713
 H        -3.010375         1.500234        -2.116318
 H        -4.413585         2.281500         0.440216
 H        -5.884076         0.020127        -1.312573
 H        -6.437500         1.057565         0.117102
