19
Iteration:   140charge 0 multiplicity 1
 C         1.439014        -0.016689         0.435565
 C        -0.034907         0.085843        -0.005860
 C        -1.207242        -0.199134        -0.275538
 C        -2.622068         0.001731        -0.406111
 O        -3.258921        -0.365440         0.804765
 C        -3.024381         1.546910        -0.587432
 C        -4.369759         1.720432        -0.190513
 C        -5.407225         1.170519        -1.084884
 O        -5.141221         2.523205        -1.116983
 H         1.700732        -1.079516         0.611198
 H         2.205800         0.337193        -0.311462
 H         1.588764         0.578662         1.361013
 H        -2.913811        -0.706451        -1.268958
 H        -3.865247        -1.146495         0.564313
 H        -2.538638         2.225334         0.179408
 H        -2.922005         1.868943        -1.701155
 H        -4.599189         1.888908         0.888990
 H        -5.119134         0.599458        -2.083074
 H        -6.410497         0.789343        -0.619842
