19
Iteration:  1613
 C         0.001826        -0.039878        -1.630483
 C        -0.817796         0.143702        -0.433923
 C        -1.695137         0.133286         0.437244
 C        -2.925426         0.144491         1.150270
 O        -2.739213         0.147760         2.647088
 C        -3.923371         1.171275         0.475796
 C        -3.797197         0.964824        -1.049948
 C        -3.308982         1.930361        -2.083814
 O        -4.749316         1.807243        -1.917984
 H        -0.223160         0.483767        -2.605947
 H         1.051607         0.308238        -1.378671
 H         0.214775        -1.090243        -1.887575
 H        -3.329311        -0.951306         1.089914
 H        -2.011724         0.811438         2.636667
 H        -4.954589         0.955346         0.719942
 H        -3.494274         2.186772         0.674999
 H        -3.849495        -0.098509        -1.295579
 H        -3.109135         2.927399        -1.753091
 H        -2.868120         1.391213        -2.954061
