19
Iteration:  2193
 C         1.480888        -0.340369         0.577067
 C         0.138264        -0.093512         0.016084
 C        -1.036651         0.237938        -0.283008
 C        -2.523721         0.284087        -0.257521
 O        -3.147145        -0.130876         1.082503
 C        -3.087443         1.593008        -0.798876
 C        -4.530154         1.719014        -0.455403
 C        -5.468360         0.857636        -0.984707
 O        -5.424789         2.295553        -1.405013
 H         1.342215        -1.037973         1.472080
 H         2.277680        -0.822557        -0.110821
 H         1.849990         0.717243         0.774403
 H        -2.936780        -0.450142        -0.885693
 H        -3.163024         0.697118         1.530645
 H        -2.471222         2.413630        -0.581046
 H        -2.986395         1.466223        -1.909565
 H        -4.810694         1.933760         0.561233
 H        -5.262904         0.185945        -1.814654
 H        -6.361153         0.759757        -0.399674
