19
Iteration:  1825
 C         0.902080        -0.276081        -0.685370
 C        -0.511961         0.172503        -0.377043
 C        -1.692029         0.240287        -0.120416
 C        -2.840306         0.171323         0.726592
 O        -2.357989         0.103622         2.128361
 C        -3.953402         1.270024         0.459899
 C        -4.616210         1.039789        -0.851516
 C        -3.932321         1.474792        -2.121044
 O        -5.015976         2.223320        -1.746125
 H         1.582375         0.523651        -0.290661
 H         1.097476        -1.195314        -0.059625
 H         0.953531        -0.561064        -1.785774
 H        -3.052112        -0.965410         0.607700
 H        -2.201775         1.026906         2.475745
 H        -4.618738         1.069057         1.269164
 H        -3.461690         2.265255         0.536211
 H        -5.268450         0.198669        -0.803310
 H        -3.025821         2.002683        -2.186163
 H        -4.274873         0.891002        -2.988314
