19
Iteration:  2867
 C        -0.062040         0.324978        -1.739815
 C        -0.826219         0.264646        -0.481755
 C        -1.537405         0.229988         0.480965
 C        -2.918650        -0.057278         1.009560
 O        -2.979810         0.139784         2.404134
 C        -4.015070         0.880115         0.478840
 C        -3.983584         0.833726        -1.052028
 C        -3.099501         1.788912        -1.743811
 O        -4.508269         1.949010        -1.782707
 H        -0.591772         0.950032        -2.392912
 H         0.843620         0.914887        -1.733209
 H         0.177802        -0.633573        -2.167599
 H        -3.045809        -1.089951         0.740604
 H        -2.150373         0.438659         2.825874
 H        -5.078683         0.530878         0.828342
 H        -3.724093         1.852053         1.009665
 H        -4.122686        -0.130728        -1.486847
 H        -2.581568         2.477110        -1.004610
 H        -2.588413         1.671345        -2.698004
