19
Iteration:  2726
 C         0.874795         0.053955        -0.769068
 C        -0.510168        -0.090949        -0.541987
 C        -1.629737         0.027602         0.013350
 C        -2.904217        -0.056992         0.815924
 O        -2.552927         0.080806         2.138869
 C        -3.858913         1.139860         0.383146
 C        -4.253943         1.095191        -1.072141
 C        -3.883814         2.036397        -2.072718
 O        -5.248118         2.006111        -1.498929
 H         1.107148         0.322865        -1.808997
 H         1.249014         0.991027        -0.289683
 H         1.306664        -0.874791        -0.348160
 H        -3.321899        -1.129149         0.794100
 H        -2.115725         0.988643         2.116145
 H        -4.693427         1.072786         1.034844
 H        -3.255869         1.870115         0.704430
 H        -4.497529         0.105848        -1.346591
 H        -3.177583         2.882568        -1.852653
 H        -3.789392         1.495850        -3.046994
