19
Iteration:  2805charge 0 multiplicity 1
 C         0.378102         0.201041        -1.426563
 C        -0.728559         0.170098        -0.500997
 C        -1.620862         0.052956         0.310779
 C        -2.873306        -0.065559         1.025388
 O        -2.684038         0.203070         2.455140
 C        -4.030187         0.854314         0.380051
 C        -4.037086         0.971646        -1.143896
 C        -3.419346         1.969685        -1.952819
 O        -4.852067         2.043635        -1.669456
 H        -0.132085         0.458143        -2.405046
 H         1.181997         0.862375        -0.991277
 H         0.908297        -0.761786        -1.559661
 H        -3.218202        -1.159056         1.019838
 H        -3.336651        -0.398322         2.862968
 H        -4.961071         0.530261         0.751122
 H        -3.808241         1.724157         0.896559
 H        -4.051853        -0.013670        -1.642506
 H        -2.885391         2.857960        -1.540124
 H        -3.121794         1.695643        -2.979538
