19
Iteration:  3000charge 0 multiplicity 1
 C         0.645320         0.227637        -1.150775
 C        -0.608104         0.068621        -0.305972
 C        -1.640785        -0.066381         0.260382
 C        -2.936235        -0.020001         0.922814
 O        -2.649793         0.143895         2.329746
 C        -3.911897         1.100846         0.416776
 C        -4.218342         1.017716        -1.074968
 C        -3.634828         1.787516        -2.229497
 O        -4.968851         2.098802        -1.654312
 H         0.670867         1.276742        -1.304754
 H         1.529040        -0.048734        -0.576810
 H         0.334005        -0.195867        -2.060783
 H        -3.385760        -1.014198         0.667559
 H        -1.869266        -0.461375         2.473070
 H        -4.849124         0.863359         1.132815
 H        -3.457933         2.084461         0.682603
 H        -4.859388         0.146630        -1.232457
 H        -2.866350         2.587712        -2.205632
 H        -3.675164         1.076118        -3.162740
