19
Iteration:  3077
 C         1.103477        -0.174666        -0.648566
 C        -0.291778         0.079453        -0.388070
 C        -1.413020         0.254996        -0.020689
 C        -2.813065         0.200338         0.622078
 O        -2.664489         0.060850         2.066322
 C        -3.901147         1.254143         0.379353
 C        -4.583207         1.050366        -0.920471
 C        -4.070959         1.582955        -2.182595
 O        -5.214139         2.190747        -1.462073
 H         1.747262         0.670180        -0.446177
 H         1.591808        -0.969376         0.010536
 H         1.096665        -0.455586        -1.708239
 H        -3.204518        -0.812363         0.229418
 H        -3.187241        -0.689873         2.322673
 H        -4.571441         1.117648         1.346073
 H        -3.404676         2.233464         0.363695
 H        -5.000411         0.037819        -1.130716
 H        -3.093899         2.239646        -2.178604
 H        -4.269746         1.233495        -3.293003
