19
Iteration:  1167charge 0 multiplicity 1
 C         1.258192        -0.169812        -0.195082
 C        -0.178039         0.082627        -0.075558
 C        -1.426398        -0.102852        -0.177934
 C        -2.809226         0.087464         0.348087
 O        -2.685782        -0.273604         1.695785
 C        -3.365505         1.574818        -0.036875
 C        -4.710303         1.522086        -0.589920
 C        -4.955754         1.163943        -1.901714
 O        -5.060604         2.525338        -1.557886
 H         1.500930        -1.172022         0.247827
 H         1.447154        -0.108779        -1.279595
 H         1.913003         0.558188         0.323333
 H        -3.569984        -0.555771         0.001689
 H        -1.862333         0.088582         2.060217
 H        -3.097451         2.123570         0.829638
 H        -2.638726         1.944326        -0.792450
 H        -5.543478         1.239416         0.025180
 H        -4.053168         0.780374        -2.514305
 H        -5.901508         0.769215        -2.298417
