19
Iteration:  4630
 C         0.768817        -0.583182        -0.691622
 C        -0.528769        -0.191018        -0.348413
 C        -1.695831         0.032872         0.064499
 C        -2.804042         0.289136         0.837270
 O        -2.484986         0.550766         2.242224
 C        -3.712287         1.383108         0.393461
 C        -4.107327         1.122685        -1.137039
 C        -4.047277         2.010573        -2.254942
 O        -5.324006         1.748740        -1.645107
 H         1.421376         0.212212        -1.041067
 H         1.231863        -1.146912         0.137482
 H         0.740414        -1.258897        -1.544933
 H        -3.463836        -0.583197         0.732449
 H        -1.598676         0.236948         2.411631
 H        -4.642970         1.378138         0.905330
 H        -3.417883         2.441831         0.575692
 H        -4.061828         0.111283        -1.538019
 H        -3.707591         3.064699        -2.017671
 H        -4.031393         1.574004        -3.256257
