19
Iteration:  3667
 C         1.438384        -0.131232         0.134773
 C        -0.061191         0.005994         0.163051
 C        -1.241541        -0.070345        -0.098194
 C        -2.698698         0.054025         0.054742
 O        -3.094628        -0.100536         1.453649
 C        -3.015292         1.533507        -0.592599
 C        -4.495081         1.923857        -0.569926
 C        -5.423705         0.980645        -1.180326
 O        -5.165573         2.296355        -1.785859
 H         1.719523        -1.181752         0.175693
 H         1.871736         0.331911        -0.872485
 H         1.869463         0.434270         0.979695
 H        -3.209082        -0.656222        -0.598061
 H        -2.515235        -0.826657         1.847389
 H        -2.495538         2.243311        -0.052771
 H        -2.772862         1.291886        -1.638977
 H        -4.965988         2.272992         0.317476
 H        -4.978482         0.135121        -1.772529
 H        -6.394129         0.863286        -0.760969
