19
Iteration:    12
 C         1.499117        -0.106711         0.067497
 C         0.025373         0.119866        -0.053874
 C        -1.183832         0.024360        -0.014749
 C        -2.612440        -0.008595        -0.170174
 O        -3.199384        -0.592580         1.015104
 C        -3.107346         1.463615        -0.359871
 C        -4.649885         1.359206        -0.394498
 C        -5.427794         1.486197        -1.624808
 O        -5.095347         2.733217        -0.932453
 H         1.705950        -0.934541         0.749218
 H         1.935030        -0.357898        -0.903486
 H         2.004478         0.800237         0.426052
 H        -2.953492        -0.645053        -0.991326
 H        -2.474166        -0.950274         1.578414
 H        -2.751815         1.894849         0.569753
 H        -2.654255         1.981233        -1.213686
 H        -5.211157         1.038879         0.468642
 H        -4.959295         1.397667        -2.613074
 H        -6.444175         1.064617        -1.526060
