19
Iteration:  2687
 C         1.066222        -0.127321        -0.665288
 C        -0.315676         0.136260        -0.273479
 C        -1.542422         0.033296        -0.068078
 C        -2.841758         0.045376         0.721876
 O        -2.517191         0.041296         2.120681
 C        -3.804380         1.167276         0.297835
 C        -4.443002         1.067701        -1.092179
 C        -4.126525         1.945161        -2.222407
 O        -5.380552         2.130220        -1.388133
 H         1.189032        -0.256004        -1.774863
 H         1.791187         0.556129        -0.212875
 H         1.411865        -1.018843        -0.100361
 H        -3.391635        -0.835274         0.434669
 H        -1.958293        -0.716606         2.252669
 H        -4.818008         1.231965         0.840532
 H        -3.413124         2.311411         0.357860
 H        -4.796911         0.018863        -1.370905
 H        -3.373109         2.708907        -2.003302
 H        -4.182845         1.635388        -3.243153
