19
Iteration:  1315
 C         0.967534        -0.150694        -1.001014
 C        -0.305955        -0.185952        -0.305138
 C        -1.316566         0.100277         0.364492
 C        -2.659908         0.199097         0.734685
 O        -3.159381         0.020661         2.107989
 C        -3.409748         1.524292         0.315084
 C        -4.394036         1.086897        -0.906653
 C        -4.318287         1.545740        -2.374061
 O        -5.161586         2.225845        -1.396849
 H         1.097759        -1.115953        -1.605189
 H         1.104835         0.780727        -1.654345
 H         1.793955        -0.023749        -0.215614
 H        -3.069692        -0.488645         0.051204
 H        -2.309956        -0.344786         2.535880
 H        -4.209936         1.792465         1.019789
 H        -2.670632         2.260327         0.159876
 H        -4.926346         0.154893        -0.610644
 H        -3.555407         2.195887        -2.608349
 H        -4.877442         0.999091        -3.091071
