19
Iteration:  1549
 C         0.309946        -0.024114        -1.650472
 C        -0.771304        -0.036758        -0.552920
 C        -1.546889        -0.061223         0.324221
 C        -2.830731         0.044148         1.094620
 O        -2.928619         0.619583         2.476893
 C        -4.055758         0.836650         0.409634
 C        -4.102102         0.914920        -1.068605
 C        -3.261323         1.847122        -1.883702
 O        -4.729124         2.020897        -1.637073
 H        -0.044946         0.227268        -2.739134
 H         1.163295         0.704483        -1.324213
 H         0.933591        -0.977472        -1.693717
 H        -3.115290        -1.030722         1.182690
 H        -2.662939         1.525720         2.469622
 H        -4.871216         0.488301         0.996294
 H        -3.794690         1.924111         0.566236
 H        -4.385394        -0.023660        -1.561130
 H        -2.719403         2.484196        -1.152828
 H        -2.868052         1.771040        -2.962422
