19
Iteration:  1096
 C         1.539474        -0.141123        -0.218633
 C         0.055971        -0.175084        -0.117282
 C        -1.124103        -0.034726         0.234028
 C        -2.564077         0.144305         0.233116
 O        -3.310201        -0.233350         1.379951
 C        -3.082490         1.571599        -0.256037
 C        -4.690947         1.571273        -0.405975
 C        -5.292351         1.113711        -1.701078
 O        -5.227767         2.523496        -1.534650
 H         2.068063        -0.664543         0.535850
 H         1.778713        -0.470369        -1.217060
 H         1.837335         0.895642        -0.163980
 H        -2.844242        -0.568305        -0.589781
 H        -2.873273         0.003066         2.217005
 H        -2.792411         2.325905         0.541899
 H        -2.527770         1.835578        -1.181131
 H        -5.222005         1.589427         0.598513
 H        -4.672540         0.806230        -2.521165
 H        -6.248156         0.595490        -1.704821
