19
Iteration:  1307charge 0 multiplicity 1
 C         1.012605        -0.130532        -0.973037
 C        -0.299779        -0.144347        -0.301997
 C        -1.287014         0.044450         0.374593
 C        -2.730556         0.233134         0.753866
 O        -3.106800        -0.010991         2.076677
 C        -3.421987         1.530288         0.278486
 C        -4.399681         1.136111        -0.907642
 C        -4.373063         1.516738        -2.363156
 O        -5.161180         2.240157        -1.388953
 H         1.094611        -1.110373        -1.422436
 H         1.153320         0.586735        -1.736298
 H         1.816240        -0.157218        -0.281938
 H        -3.121959        -0.659517         0.199205
 H        -2.529911        -0.555129         2.680060
 H        -3.954982         1.843111         1.178373
 H        -2.755931         2.386469         0.062222
 H        -4.987791         0.247938        -0.648925
 H        -3.599308         2.158545        -2.899961
 H        -4.833401         0.956293        -3.178855
