19
Iteration:    86
 C         1.553952        -0.030362         0.237947
 C         0.106689        -0.205078         0.124421
 C        -1.077883        -0.030744         0.043843
 C        -2.468036         0.008489        -0.281728
 O        -3.104635        -0.752021         0.804066
 C        -3.051980         1.527262        -0.520167
 C        -4.579322         1.698488        -0.354295
 C        -5.712375         1.365461        -1.233376
 O        -5.294555         2.777772        -1.178439
 H         2.100275        -0.874136         0.680979
 H         1.909024         0.236438        -0.786559
 H         1.809449         0.800103         0.924160
 H        -2.714279        -0.538725        -1.225021
 H        -3.510440        -0.152424         1.499042
 H        -2.428840         2.360075        -0.058674
 H        -2.704255         1.651413        -1.623432
 H        -4.979694         1.704646         0.678765
 H        -5.531453         0.712082        -2.193852
 H        -6.809683         1.266541        -0.854329
