19
Iteration:  1374charge 0 multiplicity 1
 C         0.789696        -0.113232        -1.035382
 C        -0.443553         0.118281        -0.237849
 C        -1.549319        -0.102590         0.232122
 C        -2.822822         0.020411         0.881678
 O        -2.731713         0.079691         2.329393
 C        -3.613055         1.321906         0.305240
 C        -4.319334         1.074367        -1.047033
 C        -4.012569         1.730860        -2.258468
 O        -5.169509         2.195208        -1.596430
 H         0.498976        -0.876152        -1.740847
 H         1.135652         0.603813        -1.727608
 H         1.520805        -0.636311        -0.483660
 H        -3.511897        -0.726572         0.613936
 H        -1.827214         0.417711         2.475332
 H        -4.434251         1.615968         0.950496
 H        -3.050478         2.292027         0.231852
 H        -4.888265         0.153691        -1.202483
 H        -3.234854         2.537464        -2.396125
 H        -4.131045         1.207928        -3.239629
