19
Iteration:  3899charge 0 multiplicity 1
 C         1.285518        -0.375395        -0.306417
 C        -0.137613        -0.020846        -0.011670
 C        -1.340029        -0.062558         0.152648
 C        -2.727321         0.222449         0.524953
 O        -2.726761         0.282925         1.897070
 C        -3.333378         1.540781        -0.162593
 C        -4.539485         1.171570        -0.909941
 C        -4.936544         1.281665        -2.368786
 O        -5.351508         2.251643        -1.311420
 H         1.321369        -1.220263        -1.068433
 H         1.864759         0.491585        -0.829122
 H         1.843970        -0.691547         0.581077
 H        -3.391398        -0.732222         0.365337
 H        -2.109354         1.014476         2.185458
 H        -3.596313         2.115002         0.679825
 H        -2.769423         2.351358        -0.650343
 H        -5.144351         0.290457        -0.529796
 H        -4.310217         1.835776        -3.071112
 H        -5.706212         0.496666        -2.771355
