19
Iteration:  4029
 C         1.219631        -0.391402        -0.460272
 C        -0.192913        -0.103082        -0.354511
 C        -1.302375         0.149596         0.165437
 C        -2.706243         0.388319         0.604605
 O        -2.739859         0.269497         2.147576
 C        -3.461626         1.615117         0.024989
 C        -4.726228         1.144481        -0.771209
 C        -4.544597         1.170342        -2.286344
 O        -5.334372         2.189322        -1.597568
 H         1.330022        -0.790462        -1.434347
 H         1.708649         0.610361        -0.430263
 H         1.518027        -0.993934         0.356588
 H        -3.271343        -0.486060         0.259957
 H        -2.610952        -0.664190         2.534362
 H        -3.813063         2.234047         0.885954
 H        -2.770207         2.152378        -0.837468
 H        -5.537804         0.565466        -0.310869
 H        -3.587041         1.515839        -2.810678
 H        -5.200351         0.439882        -2.809574
