19
Iteration:   555
 C         1.309709         0.031455        -0.587771
 C        -0.096703        -0.007104        -0.215898
 C        -1.246613        -0.084400         0.219193
 C        -2.758197         0.019053         0.384046
 O        -3.353896        -0.057135         1.666296
 C        -3.170287         1.358356        -0.081455
 C        -4.508082         1.328641        -0.644633
 C        -4.732880         1.421066        -2.072096
 O        -5.155612         2.380339        -1.122721
 H         1.340528         0.418047        -1.595024
 H         1.893651         0.611584         0.129103
 H         1.633953        -1.005349        -0.543105
 H        -3.173963        -0.734845        -0.310251
 H        -2.812740        -0.770624         2.092275
 H        -3.057743         2.000218         0.757545
 H        -2.696920         1.775087        -0.977005
 H        -5.104013         0.674401         0.169520
 H        -3.880877         1.785656        -2.669282
 H        -5.559285         0.865313        -2.485709
