19
Iteration:  4855charge 0 multiplicity 1
 C         0.933869        -0.285425        -0.815813
 C        -0.455565         0.003685        -0.357213
 C        -1.574824         0.088595         0.113159
 C        -2.893095         0.201765         0.719471
 O        -2.827731         0.134399         2.158780
 C        -3.575883         1.608468         0.317273
 C        -4.695982         1.389776        -0.719522
 C        -4.227023         1.005733        -2.150329
 O        -4.672784         2.315502        -1.768987
 H         1.566845         0.487406        -0.462912
 H         1.304072        -1.208177        -0.307773
 H         1.018951        -0.478897        -1.906402
 H        -3.523848        -0.631459         0.653585
 H        -2.026050        -0.470255         2.450062
 H        -3.967033         2.297057         1.179638
 H        -2.739465         1.990166        -0.214129
 H        -5.630044         0.949899        -0.312470
 H        -3.154867         0.966744        -2.679151
 H        -4.964556         0.354956        -2.650148
