19
Iteration:  2516charge 0 multiplicity 1
 C         1.403654         0.128872        -0.312368
 C         0.011473        -0.063135        -0.187115
 C        -1.155554        -0.038299         0.174555
 C        -2.634319        -0.019207         0.321258
 O        -3.214475        -0.342892         1.637210
 C        -3.181315         1.413471        -0.147098
 C        -4.710776         1.419659        -0.607365
 C        -5.091508         1.309289        -2.028369
 O        -5.152089         2.541587        -1.347310
 H         1.875028        -0.609401        -1.038263
 H         1.809832         1.101941        -0.695503
 H         1.774285        -0.183665         0.726156
 H        -3.090272        -0.859296        -0.259977
 H        -2.578146         0.017699         2.331329
 H        -3.151882         1.949706         0.770944
 H        -2.648951         1.928594        -0.846904
 H        -5.478690         1.173860         0.124306
 H        -4.240127         1.119385        -2.773957
 H        -6.107026         0.961055        -2.270906
