19
Iteration:   771charge 0 multiplicity 1
 C         1.503407        -0.216026         0.034594
 C         0.093348         0.083294        -0.114322
 C        -1.080784         0.227200         0.127420
 C        -2.567772         0.047046        -0.041494
 O        -3.311055        -0.355660         1.135316
 C        -3.156395         1.483832        -0.405639
 C        -4.619623         1.533624        -0.399556
 C        -5.443734         1.181672        -1.582478
 O        -5.161941         2.550669        -1.194825
 H         2.264027         0.575860        -0.235386
 H         1.771327        -0.533011         1.106654
 H         1.860193        -1.173737        -0.449603
 H        -2.739058        -0.750420        -0.815741
 H        -2.758503        -0.917447         1.679311
 H        -2.670710         2.278104         0.286165
 H        -2.762181         1.802986        -1.428881
 H        -4.821165         1.386707         0.693396
 H        -4.833547         0.804056        -2.438192
 H        -6.491149         0.921319        -1.610560
