19
Iteration:  3131charge 0 multiplicity 1
 C         1.152406        -0.201210        -0.449992
 C        -0.216007         0.086129        -0.152405
 C        -1.426927         0.176324        -0.009036
 C        -2.836158         0.122318         0.564780
 O        -2.529362        -0.155541         1.955006
 C        -3.679551         1.396698         0.198793
 C        -4.614816         1.158135        -0.892059
 C        -4.375877         1.534408        -2.299226
 O        -5.353869         2.281996        -1.447072
 H         1.859795         0.521702        -0.065000
 H         1.568000        -1.192542        -0.083848
 H         1.453076        -0.339859        -1.484819
 H        -3.299477        -0.822064         0.274281
 H        -2.448104         0.687489         2.374563
 H        -4.311574         1.492910         1.047194
 H        -3.092596         2.285434         0.094975
 H        -5.296531         0.290003        -0.774725
 H        -3.653701         2.366483        -2.521009
 H        -4.677529         1.001423        -3.244818
