19
Iteration:  2506charge 0 multiplicity 1
 C         1.454785         0.140361        -0.287151
 C         0.014904        -0.009677        -0.140899
 C        -1.214551        -0.118525         0.167291
 C        -2.695768         0.018919         0.310019
 O        -3.179654        -0.394827         1.602614
 C        -3.175922         1.476328        -0.164962
 C        -4.697479         1.441307        -0.567819
 C        -5.205526         1.270110        -2.005344
 O        -5.073850         2.554498        -1.368322
 H         1.736257        -0.687813        -0.961173
 H         1.730266         1.164917        -0.644697
 H         2.021019        -0.040299         0.693117
 H        -3.111760        -0.710798        -0.391304
 H        -2.598757        -0.164231         2.385185
 H        -2.976221         2.280300         0.523407
 H        -2.554505         1.622352        -0.991166
 H        -5.323585         1.026700         0.210500
 H        -4.402573         0.998807        -2.776096
 H        -6.229728         0.917030        -2.261337
