19
Iteration:  4015charge 0 multiplicity 1
 C         1.171126        -0.389571        -0.425167
 C        -0.234221        -0.066049        -0.274754
 C        -1.367395         0.179751         0.188026
 C        -2.700732         0.321380         0.651451
 O        -2.627607         0.299828         2.014851
 C        -3.471345         1.602719         0.057057
 C        -4.629529         1.166472        -0.852054
 C        -4.670747         1.160322        -2.289760
 O        -5.333131         2.181213        -1.558846
 H         1.525566        -0.985749        -1.273372
 H         1.881900         0.472047        -0.370174
 H         1.504628        -1.072399         0.496148
 H        -3.297748        -0.487686         0.153668
 H        -2.747805        -0.665368         2.044508
 H        -3.736561         2.377596         0.856220
 H        -2.711533         2.191547        -0.558809
 H        -5.132174         0.377249        -0.358497
 H        -3.747114         1.490494        -2.684867
 H        -5.328688         0.513144        -2.983191
