19
Iteration:  2778charge 0 multiplicity 1
 C         0.575135         0.201934        -1.220590
 C        -0.637856         0.020228        -0.411451
 C        -1.666764        -0.050036         0.208487
 C        -2.989988        -0.080271         0.917391
 O        -2.521165         0.184714         2.287711
 C        -3.953562         0.949987         0.398474
 C        -4.161059         0.971383        -1.119132
 C        -3.594383         2.038426        -1.936319
 O        -4.968727         2.029007        -1.671605
 H         0.257339         0.511268        -2.208401
 H         1.239777         0.975447        -0.813779
 H         1.147610        -0.716893        -1.109701
 H        -3.454919        -1.049472         0.911836
 H        -3.349506         0.524863         2.688226
 H        -4.925213         0.757244         1.017436
 H        -3.413118         1.889278         0.872572
 H        -4.188159        -0.020785        -1.587080
 H        -3.123052         2.891174        -1.458761
 H        -3.190657         1.778928        -2.935083
