19
Iteration:  1588charge 0 multiplicity 1
 C        -0.005379        -0.028297        -1.595949
 C        -0.716858        -0.005869        -0.395977
 C        -1.647330         0.138087         0.426991
 C        -2.899459         0.119745         1.089768
 O        -2.733509         0.302362         2.528925
 C        -3.934706         1.050167         0.469426
 C        -3.949347         0.881414        -1.177368
 C        -3.224292         1.933090        -1.995896
 O        -4.745424         1.877000        -1.774790
 H        -0.478338         0.451377        -2.389802
 H         0.870235         0.526490        -1.410910
 H         0.294098        -1.003148        -1.895100
 H        -3.255396        -0.935114         1.038719
 H        -2.714300         1.309183         2.594289
 H        -4.995969         0.821103         0.867471
 H        -3.676532         2.081727         0.686060
 H        -4.014813        -0.147506        -1.569076
 H        -2.817389         2.814847        -1.534298
 H        -2.994446         1.730336        -3.012014
