19
Iteration:  4174
 C         0.809139         0.058263        -0.993908
 C        -0.423912        -0.106855        -0.235826
 C        -1.559724         0.071169         0.093990
 C        -2.870723         0.195372         0.815625
 O        -2.898836         0.374683         2.230697
 C        -3.452252         1.432753         0.248358
 C        -4.611477         1.248011        -0.681186
 C        -4.230238         0.865096        -2.119473
 O        -4.646389         2.206420        -1.787712
 H         0.626574         0.195166        -2.090208
 H         1.397337         0.892978        -0.722650
 H         1.410398        -0.773439        -0.865278
 H        -3.598888        -0.620962         0.615305
 H        -2.451747        -0.374633         2.703421
 H        -3.970413         2.042386         1.029890
 H        -2.777593         2.000811        -0.479199
 H        -5.640135         0.884408        -0.493647
 H        -3.224567         0.716615        -2.404734
 H        -4.956516         0.176075        -2.631862
