19
Iteration:  2310charge 0 multiplicity 1
 C         1.416865        -0.160141         0.760791
 C         0.210363        -0.052780         0.059049
 C        -1.020008         0.081237        -0.240953
 C        -2.465189         0.166627        -0.348177
 O        -3.211676        -0.126900         0.836940
 C        -3.058654         1.468279        -1.044478
 C        -4.434525         1.860058        -0.469654
 C        -5.638165         0.941229        -0.703468
 O        -5.409477         2.280481        -1.325563
 H         1.423140        -1.185981         0.965091
 H         2.253535        -0.097847         0.066388
 H         1.548874         0.614922         1.491462
 H        -2.766937        -0.660613        -1.100497
 H        -2.701681        -0.622393         1.509263
 H        -2.517939         2.544446        -0.925953
 H        -3.099153         1.334906        -2.190670
 H        -4.313636         2.552383         0.390039
 H        -5.524773         0.019340        -1.318161
 H        -6.493628         0.983420         0.009773
