19
Iteration:  3121
 C         1.155103        -0.209557        -0.501216
 C        -0.266202         0.055692        -0.142062
 C        -1.417260         0.210422         0.060013
 C        -2.732299         0.080060         0.548648
 O        -2.519799        -0.139132         1.964077
 C        -3.738079         1.386593         0.301564
 C        -4.651622         1.191244        -0.965740
 C        -4.327586         1.600885        -2.293893
 O        -5.378332         2.249606        -1.498433
 H         1.748562         0.567172        -0.047303
 H         1.297867        -1.111581         0.127582
 H         1.161414        -0.268501        -1.565960
 H        -3.321422        -0.730148         0.101067
 H        -1.883002         0.562884         2.190168
 H        -4.379835         1.495106         1.218686
 H        -3.094348         2.247213         0.206341
 H        -5.283793         0.280081        -0.869211
 H        -3.299572         2.080569        -2.583273
 H        -4.834230         0.914985        -3.043649
