19
Iteration:   766charge 0 multiplicity 1
 C         1.489633        -0.205469         0.032621
 C         0.078916         0.052840        -0.080917
 C        -1.124004         0.226378         0.090705
 C        -2.609862         0.052692        -0.053873
 O        -3.267911        -0.336060         1.147798
 C        -3.131066         1.494461        -0.379684
 C        -4.650302         1.525160        -0.357478
 C        -5.399944         1.202751        -1.609712
 O        -5.163129         2.533553        -1.217027
 H         2.210869         0.500035        -0.300141
 H         1.826362        -0.455825         1.004423
 H         1.810662        -1.096932        -0.477248
 H        -2.713413        -0.634861        -0.922498
 H        -2.660747        -0.927086         1.642718
 H        -2.713096         2.156879         0.315286
 H        -2.580879         1.677731        -1.271286
 H        -4.893274         1.358071         0.695147
 H        -4.793434         0.920209        -2.478915
 H        -6.445186         0.759414        -1.541739
