19
Iteration:  2535
 C         1.445280         0.044907        -0.356246
 C        -0.018319        -0.081224        -0.214923
 C        -1.226780         0.068928         0.199958
 C        -2.723254         0.003679         0.290862
 O        -3.128392        -0.243467         1.630020
 C        -3.327677         1.336819        -0.004793
 C        -4.676084         1.307349        -0.642683
 C        -4.896336         1.351753        -2.063897
 O        -5.213588         2.561137        -1.309210
 H         1.759703        -0.608960        -1.209631
 H         1.517635         1.076315        -0.693149
 H         1.980394        -0.303220         0.538014
 H        -2.959316        -0.986959        -0.265535
 H        -2.789341         0.365867         2.314393
 H        -3.396740         2.004315         0.884736
 H        -2.540277         1.748621        -0.712100
 H        -5.358901         0.595686        -0.099753
 H        -4.009027         1.509726        -2.666486
 H        -5.657848         0.721264        -2.451735
