19
Iteration:  2406
 C         1.447741         0.211062         0.279758
 C         0.059021        -0.121461        -0.106798
 C        -1.114057        -0.055050         0.047915
 C        -2.574309        -0.097558        -0.103622
 O        -3.320445        -0.354752         1.137242
 C        -2.994052         1.357407        -0.602208
 C        -4.449413         1.696271        -0.519413
 C        -5.570448         1.121730        -1.077645
 O        -5.145497         2.523525        -1.524262
 H         2.128666        -0.669388         0.124540
 H         1.896754         0.961036        -0.403216
 H         1.552108         0.740284         1.256422
 H        -2.844310        -0.906613        -0.729275
 H        -2.883302         0.139869         1.825413
 H        -2.481460         2.124302        -0.020316
 H        -2.648462         1.507146        -1.580653
 H        -4.789870         2.063778         0.469681
 H        -5.555748         0.398028        -1.931459
 H        -6.573121         1.172170        -0.593701
