19
Iteration:  4635charge 0 multiplicity 1
 C         0.795930        -0.569640        -0.669119
 C        -0.568427        -0.190899        -0.330967
 C        -1.647111        -0.011848         0.066229
 C        -2.804476         0.277651         0.802809
 O        -2.482509         0.556068         2.228524
 C        -3.706892         1.395100         0.372820
 C        -4.137411         1.128738        -1.098186
 C        -4.080206         2.012899        -2.262242
 O        -5.326685         1.778958        -1.671360
 H         1.572460         0.140806        -1.092222
 H         1.305402        -1.176724         0.090482
 H         0.885013        -1.238563        -1.565252
 H        -3.604556        -0.519725         0.677357
 H        -1.583460         0.246921         2.499282
 H        -4.585190         1.266042         1.206387
 H        -3.449273         2.432436         0.658963
 H        -4.060784         0.034425        -1.307887
 H        -3.727033         2.988660        -2.062774
 H        -4.019203         1.556234        -3.321518
