19
Iteration:  3888
 C         1.183551        -0.347120        -0.318000
 C        -0.147299         0.022746        -0.000650
 C        -1.295398        -0.089263         0.231374
 C        -2.699766         0.185285         0.416198
 O        -2.754462         0.296592         1.899040
 C        -3.244916         1.519524        -0.153803
 C        -4.525237         1.160758        -0.896495
 C        -4.910115         1.353336        -2.298960
 O        -5.384197         2.205304        -1.350644
 H         1.148289        -1.238337        -1.049619
 H         1.744232         0.536313        -0.855187
 H         1.850785        -0.638030         0.500996
 H        -3.546043        -0.582883         0.173434
 H        -2.120467         1.071328         2.133150
 H        -3.623972         2.014262         0.678308
 H        -2.503649         1.932935        -0.852385
 H        -5.035311         0.437085        -0.185121
 H        -4.191988         1.629099        -3.085678
 H        -5.829011         0.740918        -2.707512
