19
Iteration:  3835charge 0 multiplicity 1
 C         1.367794        -0.221513        -0.473423
 C        -0.060308        -0.247762        -0.126500
 C        -1.169456         0.060185         0.375837
 C        -2.581566         0.180020         0.582997
 O        -3.109248         0.325268         1.890776
 C        -3.216391         1.364992        -0.324279
 C        -4.692843         1.155933        -0.803074
 C        -4.957768         1.241844        -2.225511
 O        -5.279814         2.396728        -1.348234
 H         1.583173        -1.159120        -1.147092
 H         1.512595         0.799161        -1.010212
 H         1.800363        -0.242711         0.563828
 H        -3.167988        -0.683724         0.186940
 H        -2.523463         0.530764         2.701116
 H        -3.222469         2.205156         0.377249
 H        -2.655971         1.463365        -1.237930
 H        -5.441036         0.526155        -0.199658
 H        -4.134062         1.427359        -2.892026
 H        -5.799643         0.778559        -2.813298
