19
Iteration:  2724charge 0 multiplicity 1
 C         0.886813         0.051083        -0.754024
 C        -0.523219        -0.082394        -0.530243
 C        -1.607422         0.039134         0.007639
 C        -2.911774        -0.057547         0.811594
 O        -2.547568         0.074280         2.144348
 C        -3.836597         1.130410         0.380514
 C        -4.273597         1.100664        -1.069605
 C        -3.894674         2.037399        -2.102097
 O        -5.261662         2.012280        -1.492413
 H         1.225946         0.239789        -1.780822
 H         1.228387         0.965860        -0.285540
 H         1.304710        -0.911882        -0.389043
 H        -3.318389        -1.094048         0.815215
 H        -2.033719         0.887332         2.082635
 H        -4.786244         1.064814         1.018362
 H        -3.223875         1.954412         0.753115
 H        -4.514649         0.086108        -1.342166
 H        -3.214410         2.844965        -1.849197
 H        -3.792285         1.531000        -3.104842
