19
Iteration:  4948
 C         0.730416        -0.083724        -1.016376
 C        -0.619555         0.044596        -0.499509
 C        -1.748266         0.147069         0.029019
 C        -3.039026         0.174855         0.868781
 O        -2.781083         0.174715         2.252729
 C        -3.764793         1.443368         0.585925
 C        -4.517981         1.429465        -0.784112
 C        -4.211503         0.791406        -2.096908
 O        -4.076817         2.232720        -1.852653
 H         1.333039         0.665031        -0.372564
 H         1.128689        -1.092741        -0.835911
 H         0.618045         0.126169        -2.101155
 H        -3.740120        -0.637903         0.501761
 H        -1.925021         0.486560         2.123763
 H        -4.561134         1.404626         1.344363
 H        -3.039000         2.369235         0.699182
 H        -5.605318         1.509624        -0.625744
 H        -3.233508         0.381215        -2.278793
 H        -5.162936         0.500942        -2.627072
