19
Iteration:  3608charge 0 multiplicity 1
 C         1.560048        -0.247467         0.429539
 C         0.104510        -0.184213         0.068658
 C        -1.074221         0.047248        -0.138959
 C        -2.521775         0.147963        -0.233651
 O        -3.300137        -0.034951         1.076423
 C        -3.013149         1.529949        -0.636625
 C        -4.527339         1.895314        -0.449281
 C        -5.593281         1.050513        -0.913077
 O        -5.286664         2.128379        -1.661158
 H         1.848116        -1.215442         0.940713
 H         2.216873         0.003410        -0.391185
 H         1.635621         0.545169         1.229152
 H        -2.834841        -0.586980        -0.979205
 H        -2.952424         0.718306         1.618521
 H        -2.440340         2.284816        -0.247886
 H        -2.646730         1.747822        -1.635151
 H        -4.787062         2.640831         0.394993
 H        -5.195140         0.117627        -1.285913
 H        -6.677196         0.958786        -0.574089
