19
Iteration:  3369
 C         1.444769         0.025497         0.060877
 C         0.020791        -0.104985         0.064599
 C        -1.164500        -0.061483         0.048998
 C        -2.609596         0.022537         0.040535
 O        -3.126921        -0.134879         1.422395
 C        -3.115074         1.309833        -0.527647
 C        -4.561678         1.689407        -0.451105
 C        -5.476977         1.122432        -1.534203
 O        -5.136953         2.503805        -1.549927
 H         1.698322        -0.018697         1.072660
 H         2.018063        -0.641719        -0.559061
 H         1.598561         1.061496        -0.315798
 H        -2.991343        -0.902870        -0.431349
 H        -2.837981        -0.971709         1.840619
 H        -2.521624         2.063714         0.128808
 H        -2.716826         1.512344        -1.567943
 H        -5.123744         1.967244         0.467886
 H        -4.861406         0.669962        -2.337727
 H        -6.489691         0.914548        -1.426509
