19
Iteration:  3534charge 0 multiplicity 1
 C         1.469055        -0.451880         0.535490
 C         0.139085         0.077650         0.275784
 C        -1.003740         0.253417        -0.128238
 C        -2.566909         0.263008        -0.340575
 O        -3.305615        -0.070378         0.944407
 C        -3.024498         1.558758        -0.948129
 C        -4.475047         1.874629        -0.459027
 C        -5.535654         0.904403        -0.763436
 O        -5.346478         2.158212        -1.526535
 H         1.335345        -1.349848         1.141518
 H         2.111839        -0.682715        -0.415646
 H         2.027572         0.315967         1.167067
 H        -2.765035        -0.552521        -1.062214
 H        -2.743231        -0.784756         1.391965
 H        -2.146683         2.305064        -0.802352
 H        -3.105104         1.644355        -2.079636
 H        -4.615423         2.587792         0.395999
 H        -5.258704        -0.049743        -1.178498
 H        -6.441578         1.001630        -0.069019
