19
Iteration:  4684charge 0 multiplicity 1
 C         0.902116        -0.514124        -0.637325
 C        -0.411135        -0.349927        -0.199453
 C        -1.492423        -0.008012         0.067215
 C        -2.750290         0.275133         0.760408
 O        -2.563676         0.592508         2.149884
 C        -3.654878         1.330361         0.201752
 C        -4.437807         1.017513        -1.107042
 C        -4.190253         1.877173        -2.234768
 O        -5.320150         2.049534        -1.543384
 H         1.415476         0.446690        -0.759067
 H         1.583889        -1.087209         0.095737
 H         1.091097        -1.014845        -1.597080
 H        -3.350150        -0.648973         0.652990
 H        -1.956327        -0.090399         2.566565
 H        -4.446795         1.513961         0.873205
 H        -3.131821         2.321415         0.124651
 H        -4.988846         0.057270        -1.181127
 H        -3.414002         2.674206        -2.101834
 H        -4.241995         1.616914        -3.310247
