19
Iteration:  3262charge 0 multiplicity 1
 C         1.331457        -0.005498        -0.504692
 C        -0.050735         0.031262        -0.007273
 C        -1.230426        -0.003162         0.392494
 C        -2.674116         0.024681         0.391100
 O        -3.240196        -0.160007         1.674718
 C        -3.247275         1.346745        -0.245161
 C        -4.659383         1.221484        -0.747986
 C        -4.941997         1.369733        -2.122138
 O        -5.065260         2.485912        -1.224495
 H         1.959298         0.527742         0.255108
 H         1.732473        -1.109556        -0.609340
 H         1.516106         0.656783        -1.415998
 H        -3.010958        -0.873726        -0.164987
 H        -2.683797         0.465401         2.206006
 H        -3.073877         2.226976         0.376645
 H        -2.702982         1.576389        -1.188056
 H        -5.298574         0.866360         0.070410
 H        -4.047757         1.336419        -2.851905
 H        -5.835901         0.878824        -2.474496
