19
Iteration:  2367charge 0 multiplicity 1
 C         1.457144         0.089060         0.425796
 C         0.008887         0.024780         0.275869
 C        -1.117842        -0.214348        -0.207723
 C        -2.570781         0.060440        -0.283924
 O        -3.219038        -0.298119         0.989317
 C        -3.011482         1.490139        -0.858099
 C        -4.411797         1.784500        -0.339149
 C        -5.567975         1.033248        -0.920366
 O        -5.237993         2.408152        -1.494037
 H         1.846033        -0.922046         0.529391
 H         1.730483         0.602649        -0.512002
 H         1.807138         0.621946         1.305232
 H        -3.154324        -0.625650        -1.016419
 H        -2.647656        -0.089454         1.763494
 H        -2.251780         2.342225        -0.760587
 H        -3.188754         1.265959        -1.990296
 H        -4.422008         2.326900         0.593930
 H        -5.503486         0.113230        -1.509400
 H        -6.337472         0.975268        -0.195958
