19
Iteration:  1554
 C         0.281020        -0.028740        -1.676036
 C        -0.699023        -0.042552        -0.569457
 C        -1.568328        -0.031573         0.356373
 C        -2.829643         0.021697         1.111628
 O        -2.939926         0.592130         2.483670
 C        -4.010569         0.879525         0.467535
 C        -4.104119         0.858121        -1.115259
 C        -3.231142         1.865165        -1.879248
 O        -4.757518         2.027191        -1.664216
 H        -0.118692         0.265652        -2.586957
 H         0.994753         0.662242        -1.337799
 H         0.834394        -0.942879        -1.764007
 H        -3.242212        -0.982464         1.167324
 H        -2.745187         1.577734         2.399529
 H        -4.993576         0.626658         1.041241
 H        -3.868947         1.940934         0.674380
 H        -4.262051        -0.140337        -1.573897
 H        -2.602896         2.580428        -1.302187
 H        -2.878652         1.830435        -2.884144
