19
Iteration:  3995charge 0 multiplicity 1
 C         1.166702        -0.444844        -0.303884
 C        -0.225154        -0.006183        -0.105644
 C        -1.382344         0.194964        -0.056826
 C        -2.682947         0.259557         0.478484
 O        -2.646771         0.357022         2.025905
 C        -3.408696         1.547900         0.051842
 C        -4.599141         1.167953        -0.856782
 C        -4.714956         1.192365        -2.306868
 O        -5.345805         2.189105        -1.477898
 H         1.246107        -0.963714        -1.217346
 H         1.837683         0.421264        -0.531864
 H         1.783449        -1.092651         0.315843
 H        -3.269919        -0.642603         0.326893
 H        -2.514611        -0.595643         2.415146
 H        -3.837897         2.112236         0.943771
 H        -2.662700         2.500771        -0.235155
 H        -5.126913         0.287772        -0.444592
 H        -4.047425         1.562004        -3.097493
 H        -5.362858         0.342741        -2.773189
