19
Iteration:  4051
 C         1.250585        -0.339388        -0.628330
 C        -0.204451        -0.126268        -0.231657
 C        -1.342762         0.178238         0.087508
 C        -2.735367         0.271521         0.629709
 O        -2.913055         0.359888         2.061777
 C        -3.454718         1.539703         0.150498
 C        -4.679635         1.217957        -0.725776
 C        -4.509457         1.079029        -2.201501
 O        -5.262768         2.220915        -1.648622
 H         1.312068        -0.682299        -1.653192
 H         1.782277         0.642522        -0.556769
 H         1.716657        -1.025837         0.049753
 H        -3.155697        -0.704782         0.464730
 H        -2.440303        -0.236214         2.640970
 H        -3.847977         2.102234         1.023417
 H        -2.605442         2.152363        -0.478821
 H        -5.357239         0.447424        -0.397634
 H        -3.435142         1.349253        -2.502419
 H        -5.049982         0.420487        -2.893903
