19
Iteration:  2918charge 0 multiplicity 1
 C        -0.028658         0.467296        -1.539380
 C        -0.969167         0.205910        -0.535417
 C        -1.757029         0.033520         0.383347
 C        -2.935124        -0.137163         1.096105
 O        -2.704641         0.124723         2.531318
 C        -3.955661         0.906000         0.474731
 C        -3.928141         0.909219        -1.095953
 C        -3.113808         1.802401        -1.983762
 O        -4.545962         1.983956        -1.792244
 H        -0.198908         1.373494        -2.232236
 H         1.029097         0.578122        -1.154954
 H         0.200823        -0.497427        -2.089668
 H        -3.387855        -1.193426         1.010472
 H        -3.243722         0.780937         2.925724
 H        -4.872046         0.678280         0.903801
 H        -3.627169         1.864308         0.903630
 H        -4.078319        -0.112672        -1.549231
 H        -2.563711         2.702932        -1.887213
 H        -2.968817         1.418857        -2.961821
