19
Iteration:  4876
 C         0.925017        -0.257297        -0.874935
 C        -0.470556         0.007991        -0.246209
 C        -1.635510         0.086319         0.098073
 C        -2.837319         0.242945         0.663438
 O        -2.822557         0.212537         2.144223
 C        -3.617933         1.505170         0.415823
 C        -4.548624         1.327704        -0.770138
 C        -4.376032         0.952563        -2.105135
 O        -4.536539         2.354465        -1.809238
 H         1.598106         0.525803        -0.641133
 H         1.323063        -1.229288        -0.595247
 H         0.615871        -0.290786        -1.936150
 H        -3.585848        -0.578395         0.328429
 H        -2.301638        -0.477662         2.479999
 H        -4.376947         1.565521         1.263517
 H        -2.970043         2.321634         0.363963
 H        -5.522932         1.223940        -0.293177
 H        -3.251521         0.619436        -2.404317
 H        -5.025551         0.472528        -2.826101
