19
Iteration:   828charge 0 multiplicity 1
 C         1.546633        -0.093073         0.139586
 C         0.106188        -0.133244         0.368406
 C        -1.035081         0.072348         0.032707
 C        -2.466228         0.023775        -0.223255
 O        -3.151588        -0.248433         1.028814
 C        -3.133621         1.336837        -0.699331
 C        -4.542988         1.549204        -0.468037
 C        -5.708781         1.238515        -1.338217
 O        -5.278078         2.694267        -1.196044
 H         1.860152         0.980435         0.074027
 H         2.090988        -0.637027         0.918300
 H         1.588193        -0.530464        -0.876580
 H        -2.816199        -0.886164        -0.711644
 H        -2.753386        -1.072378         1.412409
 H        -2.637489         2.186076        -0.168213
 H        -2.887177         1.405960        -1.818096
 H        -4.713327         1.403771         0.544911
 H        -5.461744         0.875208        -2.274471
 H        -6.587494         0.813889        -0.907372
