19
Iteration:  2428charge 0 multiplicity 1
 C         1.492880         0.202351         0.113465
 C         0.079379         0.027049        -0.036029
 C        -1.164726        -0.214338         0.028868
 C        -2.626450         0.003865        -0.000233
 O        -3.319202        -0.424953         1.237601
 C        -2.965436         1.410929        -0.558089
 C        -4.515197         1.671622        -0.401111
 C        -5.643309         1.184459        -1.362426
 O        -5.025613         2.451442        -1.475221
 H         2.200777        -0.634005        -0.137448
 H         1.931311         1.056791        -0.458419
 H         1.674472         0.652805         1.147420
 H        -3.162178        -0.662902        -0.610360
 H        -3.013519         0.035644         2.077256
 H        -2.327930         2.194844        -0.173604
 H        -2.652036         1.278529        -1.538483
 H        -4.871259         2.219194         0.489007
 H        -5.424085         0.380755        -2.152086
 H        -6.721269         1.199618        -1.005993
