19
Iteration:  1567
 C         0.192138        -0.012127        -1.646962
 C        -0.689136        -0.076754        -0.480169
 C        -1.559172         0.069524         0.341323
 C        -2.936743         0.056539         1.155853
 O        -2.877406         0.487290         2.489956
 C        -3.911408         0.957375         0.414686
 C        -4.007149         0.865170        -1.122397
 C        -3.324325         1.882394        -1.833548
 O        -4.716929         1.987694        -1.743016
 H        -0.443253         0.308654        -2.431167
 H         1.014435         0.647756        -1.642317
 H         0.544359        -0.956133        -1.974912
 H        -3.197441        -1.037908         1.244118
 H        -2.887883         1.434202         2.449572
 H        -4.909630         0.616074         0.776357
 H        -3.669845         1.970754         0.718051
 H        -4.232447        -0.074321        -1.629117
 H        -2.745478         2.606026        -1.316640
 H        -3.110871         1.567196        -2.797241
