19
Iteration:  3839charge 0 multiplicity 1
 C         1.377365        -0.227104        -0.487487
 C        -0.073209        -0.239105        -0.113299
 C        -1.182775         0.057024         0.330068
 C        -2.617697         0.206098         0.565425
 O        -3.115995         0.317683         1.937965
 C        -3.196708         1.366458        -0.304975
 C        -4.702116         1.141627        -0.797846
 C        -4.958697         1.252246        -2.234344
 O        -5.294637         2.386533        -1.355320
 H         1.678224        -1.068758        -1.060212
 H         1.668078         0.658610        -0.936145
 H         1.892134        -0.284870         0.500855
 H        -3.177102        -0.655779         0.269278
 H        -2.406233         0.530210         2.529028
 H        -3.118585         2.301300         0.391154
 H        -2.762091         1.362416        -1.345899
 H        -5.320680         0.500914        -0.202091
 H        -4.029570         1.542500        -2.798501
 H        -5.614332         0.760084        -2.877120
