19
Iteration:  4795charge 0 multiplicity 1
 C         1.033654        -0.342668        -0.745334
 C        -0.373629        -0.258027        -0.152907
 C        -1.600595        -0.024496         0.040377
 C        -2.889959         0.296900         0.670281
 O        -2.802252         0.225725         2.145808
 C        -3.508096         1.643205         0.274935
 C        -4.446859         1.223813        -0.852076
 C        -4.276943         1.256096        -2.285442
 O        -5.032780         2.287379        -1.618761
 H         1.504579         0.681447        -0.645221
 H         1.584863        -1.119103        -0.198754
 H         1.001268        -0.528131        -1.822567
 H        -3.606614        -0.425534         0.202933
 H        -1.957716         0.158656         2.603933
 H        -4.081556         1.906242         1.092163
 H        -2.740822         2.449777         0.261304
 H        -5.204741         0.502859        -0.468208
 H        -3.383656         1.636268        -2.727032
 H        -4.998859         0.586723        -2.853814
