19
Iteration:  3541charge 0 multiplicity 1
 C         1.492281        -0.443699         0.525689
 C         0.113147         0.048968         0.289029
 C        -1.041460         0.286841        -0.131755
 C        -2.553126         0.232254        -0.329617
 O        -3.275841        -0.097588         0.925909
 C        -3.090311         1.534305        -0.923020
 C        -4.412188         1.922163        -0.496838
 C        -5.497134         0.951450        -0.765996
 O        -5.386135         2.155089        -1.539967
 H         1.383438        -1.419703         1.140637
 H         1.882982        -0.590210        -0.434128
 H         1.994054         0.312467         1.178858
 H        -2.737591        -0.612073        -0.999385
 H        -2.668636        -0.498984         1.556427
 H        -2.415601         2.228092        -0.544493
 H        -2.974116         1.585981        -1.994395
 H        -4.535979         2.554873         0.406506
 H        -5.160850        -0.054725        -1.154659
 H        -6.318123         0.787844        -0.107169
