19
Iteration:  4393charge 0 multiplicity 1
 C         0.431749        -0.273693        -1.323310
 C        -0.750021        -0.095816        -0.447902
 C        -1.673044        -0.027668         0.377396
 C        -2.961660         0.171508         1.024252
 O        -2.592807         0.640641         2.467471
 C        -3.889355         1.347199         0.437783
 C        -4.110230         0.977140        -0.974674
 C        -3.530416         1.670522        -2.178382
 O        -4.920042         1.801537        -1.850649
 H         0.494418         0.486921        -2.225319
 H         1.399015        -0.147151        -0.841390
 H         0.560787        -1.256808        -1.830524
 H        -3.522128        -0.745910         1.180601
 H        -2.186342         1.583093         2.504124
 H        -4.781675         1.414053         1.093028
 H        -3.379710         2.233659         0.726966
 H        -4.386350        -0.037713        -1.168148
 H        -2.889495         2.569503        -1.943254
 H        -3.294584         1.180830        -3.063252
