19
Iteration:  1897
 C         1.142991        -0.169992        -0.746298
 C        -0.247969         0.003340        -0.375686
 C        -1.367663         0.227904         0.158185
 C        -2.848549         0.171219         0.658856
 O        -2.719847         0.069312         2.200955
 C        -3.697524         1.417025         0.374678
 C        -4.625723         1.236036        -0.826310
 C        -4.263113         1.232825        -2.209707
 O        -5.199156         2.287030        -1.726673
 H         1.688997         0.571788        -0.164652
 H         1.544095        -1.156797        -0.604792
 H         1.139375         0.074313        -1.783143
 H        -3.354867        -0.727258         0.155515
 H        -2.488502        -0.912191         2.301760
 H        -4.275234         1.499210         1.321327
 H        -3.134224         2.374532         0.108632
 H        -5.454552         0.505023        -0.691945
 H        -3.314309         1.813543        -2.473812
 H        -4.746673         0.440109        -2.886177
