19
Iteration:  1055
 C         1.353270        -0.193405        -0.199099
 C         0.067096         0.076538         0.324682
 C        -1.121699         0.023470         0.234884
 C        -2.574522         0.152393         0.019476
 O        -3.318099        -0.311716         1.170448
 C        -2.958360         1.525750        -0.540605
 C        -4.471199         1.544083        -0.466462
 C        -5.418329         1.113068        -1.500090
 O        -5.200120         2.495285        -1.330771
 H         2.096398        -0.556163         0.521521
 H         1.280053        -0.900966        -1.010048
 H         1.761384         0.713937        -0.652164
 H        -2.844955        -0.601866        -0.662184
 H        -2.911258         0.014451         1.964864
 H        -2.487087         2.332603        -0.019820
 H        -2.750709         1.607650        -1.590459
 H        -4.932192         1.795281         0.494088
 H        -4.926420         0.562498        -2.338256
 H        -6.509433         0.785258        -1.349924
