19
Iteration:   296
 C         1.463930        -0.303735         0.132353
 C         0.117680         0.160175         0.178753
 C        -1.091014         0.271350        -0.021905
 C        -2.585650         0.086852        -0.141445
 O        -3.211963        -0.637456         0.933265
 C        -3.009270         1.542437        -0.581381
 C        -4.551907         1.766888        -0.294899
 C        -5.425519         1.095502        -1.266693
 O        -5.352153         2.584528        -1.257192
 H         1.443551        -1.180207        -0.548202
 H         2.232240         0.390882        -0.193231
 H         1.735699        -0.739880         1.124032
 H        -2.706905        -0.655345        -0.964687
 H        -3.100258        -0.016265         1.653154
 H        -2.315255         2.396806        -0.449826
 H        -3.066483         1.518559        -1.684214
 H        -4.851635         1.916635         0.663823
 H        -4.988452         0.788133        -2.233416
 H        -6.378572         0.588156        -0.985762
