19
Iteration:   620
 C         1.296119        -0.114044        -0.527023
 C         0.040658         0.017432         0.139895
 C        -1.158134         0.033800         0.190437
 C        -2.654465         0.051770         0.333264
 O        -3.016986        -0.327175         1.760463
 C        -3.314369         1.309439        -0.135119
 C        -4.716319         1.388435        -0.688416
 C        -4.985252         1.478548        -2.091012
 O        -5.238000         2.618365        -1.342422
 H         1.310101         0.388779        -1.510817
 H         2.196757         0.275984        -0.021392
 H         1.401742        -1.146836        -0.904614
 H        -3.089447        -0.794507        -0.271687
 H        -2.418621        -1.067519         2.020971
 H        -3.408877         2.035484         0.719678
 H        -2.511881         1.759381        -0.794546
 H        -5.507895         0.864446         0.018219
 H        -4.118297         1.562237        -2.771380
 H        -5.870854         1.078697        -2.552891
