19
Iteration:  4416
 C         0.310270        -0.264625        -1.288728
 C        -0.772727        -0.244748        -0.344052
 C        -1.762897         0.084875         0.258352
 C        -2.903347         0.392791         1.173736
 O        -2.516589         0.508602         2.511318
 C        -3.821914         1.363164         0.374632
 C        -3.981947         0.876745        -1.084796
 C        -3.526244         1.816981        -2.183894
 O        -4.994485         1.704508        -1.870585
 H         0.266103         0.622828        -2.019792
 H         1.297293        -0.154267        -0.875004
 H         0.498707        -1.126024        -1.964687
 H        -3.566290        -0.482356         1.255314
 H        -2.126428         1.258534         2.897290
 H        -4.810174         1.374061         0.913609
 H        -3.560998         2.384271         0.412997
 H        -4.029809        -0.194104        -1.391341
 H        -3.063363         2.801449        -1.972841
 H        -3.207308         1.381746        -3.084121
