19
Iteration:   590
 C         1.293831         0.003026        -0.605489
 C        -0.042494        -0.218217        -0.103065
 C        -1.114391        -0.000663         0.416683
 C        -2.626394         0.118299         0.468645
 O        -3.179453        -0.288267         1.723768
 C        -3.265150         1.433237        -0.107785
 C        -4.597042         1.308306        -0.699322
 C        -4.980213         1.495091        -2.166783
 O        -5.194058         2.514355        -1.267717
 H         1.279003         0.508814        -1.554933
 H         1.933132         0.549150         0.041811
 H         1.759824        -0.936423        -0.840386
 H        -2.949036        -0.555547        -0.336446
 H        -2.507736        -0.804304         2.221027
 H        -3.453996         2.161876         0.592251
 H        -2.535206         1.832146        -0.751766
 H        -5.390224         0.773336        -0.251443
 H        -4.268173         1.704459        -2.993259
 H        -5.908968         1.069428        -2.570565
