19
Iteration:  1682charge 0 multiplicity 1
 C         0.266640         0.083535        -1.539647
 C        -0.705274        -0.127764        -0.453384
 C        -1.611179         0.014748         0.291008
 C        -2.945968         0.151685         1.056397
 O        -2.830604         0.360591         2.519780
 C        -3.760338         1.234667         0.443195
 C        -3.876363         0.898078        -1.021688
 C        -3.480648         1.863534        -2.066020
 O        -4.862472         1.841687        -1.730857
 H         0.218813         1.118833        -2.021315
 H         1.235282         0.080230        -0.921201
 H         0.271482        -0.779857        -2.297267
 H        -3.701771        -0.699925         0.982782
 H        -2.916100        -0.457999         2.986071
 H        -4.770577         1.260355         0.732909
 H        -3.285622         2.212746         0.590171
 H        -4.204353        -0.124046        -1.203343
 H        -3.159376         2.857609        -1.675053
 H        -3.220173         1.458359        -3.026318
