19
Iteration:  1278charge 0 multiplicity 1
 C         1.034099        -0.169927        -0.817552
 C        -0.227148         0.043334        -0.142857
 C        -1.356536         0.031107         0.212529
 C        -2.758992         0.097388         0.637555
 O        -2.925469        -0.039330         2.061778
 C        -3.306551         1.467806         0.154755
 C        -4.555478         1.203759        -0.812413
 C        -4.450411         1.425986        -2.277850
 O        -5.246888         2.392441        -1.471861
 H         1.063731        -1.258253        -1.061595
 H         1.195748         0.314290        -1.813630
 H         1.920274        -0.089679        -0.149069
 H        -3.291358        -0.808217         0.242044
 H        -2.839594        -0.901463         2.534523
 H        -3.557507         1.984886         1.109387
 H        -2.483843         2.118611        -0.314594
 H        -5.339759         0.519745        -0.435531
 H        -3.467580         1.975452        -2.585773
 H        -4.988780         0.903467        -3.130640
