19
Iteration:  2304
 C         1.441266        -0.167863         0.786759
 C         0.181036        -0.067684         0.032945
 C        -0.961630         0.048453        -0.230783
 C        -2.476437         0.215780        -0.332867
 O        -3.202683        -0.101333         0.812113
 C        -3.037859         1.507134        -1.081267
 C        -4.475471         1.866226        -0.429926
 C        -5.674836         0.941094        -0.699537
 O        -5.413118         2.257201        -1.331333
 H         1.600378        -1.271349         1.168663
 H         2.328220        -0.253296         0.086222
 H         1.616144         0.529375         1.645396
 H        -2.712980        -0.524401        -1.095607
 H        -2.517542        -0.715679         1.235684
 H        -2.521459         2.389494        -1.140228
 H        -3.376761         1.234796        -2.074802
 H        -4.607334         2.547632         0.426582
 H        -5.499246         0.077253        -1.323182
 H        -6.412354         0.972130         0.069813
