19
Iteration:  1445
 C         0.702570        -0.022617        -1.001413
 C        -0.679475        -0.133287        -0.607056
 C        -1.716293        -0.029786        -0.080547
 C        -2.969558         0.064897         0.891185
 O        -2.526641         0.426061         2.193719
 C        -4.034542         1.050358         0.452954
 C        -4.372982         0.922328        -0.942454
 C        -3.518558         1.785571        -1.804341
 O        -4.935615         2.129802        -1.693346
 H         0.908294        -0.339724        -2.013276
 H         1.028746         0.998943        -1.067706
 H         1.254603        -0.728525        -0.382013
 H        -3.479214        -0.948543         1.071600
 H        -2.000762         1.251237         2.071463
 H        -4.850079         1.054485         1.219327
 H        -3.573908         1.999805         0.662182
 H        -4.919245        -0.032297        -1.122587
 H        -2.718408         2.321131        -1.327884
 H        -3.177744         1.469062        -2.748401
