19
Iteration:  3717charge 0 multiplicity 1
 C         1.517882        -0.022959        -0.107289
 C         0.042243        -0.225262        -0.062435
 C        -1.209742        -0.138060         0.063593
 C        -2.654407         0.202632         0.256282
 O        -3.279468         0.122752         1.601808
 C        -3.098218         1.449505        -0.379618
 C        -4.595361         1.560277        -0.552639
 C        -5.522827         1.029503        -1.557416
 O        -4.900900         2.333979        -1.697513
 H         2.039361        -0.975162        -0.287480
 H         1.750375         0.573529        -0.926728
 H         1.896092         0.498055         0.811260
 H        -3.153234        -0.535118        -0.454959
 H        -2.850856        -0.614860         1.998421
 H        -3.045376         2.417373         0.343171
 H        -2.556726         1.326878        -1.340878
 H        -5.129254         1.956028         0.391022
 H        -5.213564         0.488841        -2.436713
 H        -6.596917         0.883825        -1.235314
