19
Iteration:   888
 C         1.327775         0.024116         0.538655
 C         0.095715         0.002117        -0.213858
 C        -1.095869        -0.180035        -0.345658
 C        -2.585030        -0.118738        -0.236666
 O        -3.142552        -0.102634         1.139875
 C        -2.974073         1.247385        -0.732007
 C        -4.407001         1.633360        -0.380312
 C        -5.640268         1.254104        -1.224318
 O        -5.247657         2.586046        -1.157182
 H         1.350340         0.911563         1.134121
 H         1.420016        -0.867859         1.159354
 H         2.227790         0.015335        -0.050021
 H        -3.055980        -0.884477        -0.817383
 H        -2.432037        -0.275371         1.763240
 H        -2.206509         1.892388        -0.338522
 H        -3.039455         1.417680        -1.767210
 H        -4.775278         1.617898         0.721966
 H        -5.237433         0.782509        -2.205451
 H        -6.660530         0.906694        -0.948388
