19
Iteration:  3609
 C         1.559205        -0.246947         0.432645
 C         0.109580        -0.182341         0.060895
 C        -1.083161         0.052500        -0.132595
 C        -2.526921         0.138475        -0.234400
 O        -3.297569        -0.028745         1.079609
 C        -3.012953         1.524259        -0.639671
 C        -4.524426         1.891858        -0.442472
 C        -5.589030         1.057023        -0.921225
 O        -5.283817         2.125849        -1.658706
 H         1.823351        -1.211395         0.929688
 H         2.214566         0.014574        -0.446813
 H         1.627379         0.548628         1.244960
 H        -2.826599        -0.598219        -0.972311
 H        -2.939058         0.683908         1.615851
 H        -2.441076         2.260733        -0.196763
 H        -2.655246         1.775635        -1.640790
 H        -4.805571         2.664610         0.369192
 H        -5.201052         0.115647        -1.283154
 H        -6.685971         0.955264        -0.598558
