19
Iteration:   454charge 0 multiplicity 1
 C         1.502475        -0.046341        -0.281672
 C        -0.023578        -0.026475        -0.171118
 C        -1.221529         0.048502         0.106929
 C        -2.723309        -0.063564         0.278025
 O        -2.877402        -0.347259         1.646722
 C        -3.413774         1.368217        -0.152599
 C        -4.827627         1.487760        -0.533261
 C        -5.179583         1.325853        -1.936380
 O        -4.998000         2.602879        -1.404696
 H         1.844629        -0.067642        -1.317131
 H         1.899144         0.815495         0.268676
 H         1.883466        -1.013093         0.024612
 H        -3.015792        -0.809614        -0.506123
 H        -3.751367        -0.071482         1.912530
 H        -3.289691         2.092006         0.687333
 H        -2.709199         1.790678        -0.883352
 H        -5.664655         1.618880         0.281534
 H        -4.383225         1.093353        -2.613656
 H        -6.147060         0.923340        -2.176322
