19
Iteration:  1151
 C         1.206712        -0.164125        -0.189726
 C        -0.172383         0.054960        -0.047482
 C        -1.401559         0.006792        -0.214480
 C        -2.732569         0.086970         0.223129
 O        -2.830759        -0.246399         1.692375
 C        -3.208610         1.509118        -0.073453
 C        -4.745263         1.577405        -0.491322
 C        -4.991917         1.055794        -1.943242
 O        -5.021576         2.500597        -1.482833
 H         1.445762        -1.067529         0.352798
 H         1.473921        -0.222432        -1.239779
 H         1.793861         0.637214         0.249848
 H        -3.206392        -0.792756        -0.399870
 H        -2.173084         0.268938         2.124394
 H        -3.080704         2.161934         0.881404
 H        -2.526909         1.897698        -0.864999
 H        -5.384830         1.636333         0.439736
 H        -4.207390         0.916272        -2.633512
 H        -5.943473         0.566030        -2.162198
