19
Iteration:  1138
 C         1.277296        -0.143909        -0.172809
 C        -0.120791        -0.009821        -0.116161
 C        -1.353457         0.083010        -0.147307
 C        -2.728250         0.065446         0.224901
 O        -2.976957        -0.220987         1.602391
 C        -3.227287         1.508063        -0.092941
 C        -4.613250         1.519013        -0.474091
 C        -5.044404         1.117189        -1.803848
 O        -5.037330         2.481501        -1.515115
 H         1.608345        -1.070945         0.384810
 H         1.643629        -0.406209        -1.222798
 H         1.835401         0.755781         0.223986
 H        -3.452787        -0.709756        -0.279671
 H        -2.314864         0.361305         2.089503
 H        -2.914220         2.130769         0.835579
 H        -2.689653         1.968667        -1.015278
 H        -5.452285         1.264120         0.209383
 H        -4.264082         0.694082        -2.412981
 H        -6.043592         0.769716        -1.962796
