19
Iteration:   605charge 0 multiplicity 1
 C         1.370667        -0.071491        -0.650663
 C        -0.000409        -0.115932         0.092669
 C        -1.180028         0.014954         0.347971
 C        -2.660831         0.029537         0.432060
 O        -3.066012        -0.343089         1.768617
 C        -3.275624         1.505692        -0.107734
 C        -4.744882         1.339723        -0.756191
 C        -5.006203         1.432965        -2.244116
 O        -5.204124         2.611356        -1.242865
 H         1.125190         0.632996        -1.482249
 H         2.146721         0.398107         0.027229
 H         1.826643        -1.082885        -0.833192
 H        -2.996384        -0.748426        -0.305015
 H        -2.413212        -0.982819         2.001519
 H        -3.114618         2.268304         0.772783
 H        -2.710198         1.848767        -1.035174
 H        -5.490457         0.814334        -0.117168
 H        -4.137630         1.556835        -2.886413
 H        -5.946727         0.971490        -2.633227
