19
Iteration:  1715
 C         0.363713         0.062043        -1.321447
 C        -0.624218        -0.055069        -0.381278
 C        -1.537816        -0.147020         0.405387
 C        -2.915237        -0.024005         1.084662
 O        -2.678762         0.482274         2.437492
 C        -3.765492         1.036515         0.374325
 C        -4.158989         1.011895        -1.122639
 C        -3.600836         1.846896        -2.252237
 O        -4.954256         2.064335        -1.688415
 H         0.491748         1.084483        -1.809399
 H         1.337345        -0.284356        -0.832827
 H         0.411952        -0.667245        -2.196451
 H        -3.565929        -1.018887         1.045141
 H        -2.548296        -0.317720         2.937082
 H        -4.708226         0.915380         0.848774
 H        -3.350586         2.018293         0.616196
 H        -4.642950         0.065098        -1.383711
 H        -3.000529         2.752242        -2.104907
 H        -3.411871         1.527567        -3.256486
