19
Iteration:  2706
 C         0.992737        -0.054887        -0.674157
 C        -0.512135         0.035279        -0.454813
 C        -1.598196         0.002935        -0.031910
 C        -2.812591         0.026162         0.735193
 O        -2.514972         0.038684         2.217270
 C        -3.848924         1.143313         0.366703
 C        -4.337800         1.040999        -1.090932
 C        -4.060229         2.013232        -2.171693
 O        -5.275892         2.089928        -1.499244
 H         1.143512         0.107933        -1.747593
 H         1.548575         0.822572        -0.195544
 H         1.351428        -0.929939        -0.130740
 H        -3.377815        -0.921114         0.456184
 H        -1.562891         0.100909         2.318299
 H        -4.566058         0.964945         1.119308
 H        -3.421054         2.136167         0.484922
 H        -4.683323         0.053415        -1.416571
 H        -3.410850         2.924166        -2.011666
 H        -4.238992         1.781421        -3.228817
