19
Iteration:  4878
 C         0.911551        -0.246342        -0.882570
 C        -0.471942         0.002707        -0.235682
 C        -1.635648         0.084052         0.098876
 C        -2.818393         0.245568         0.653242
 O        -2.821516         0.212801         2.138907
 C        -3.633127         1.495418         0.431448
 C        -4.564353         1.334148        -0.750948
 C        -4.370815         0.942326        -2.121252
 O        -4.517477         2.362082        -1.827402
 H         1.595757         0.518979        -0.657961
 H         1.376775        -1.266543        -0.636180
 H         0.622003        -0.281020        -1.936490
 H        -3.509791        -0.588313         0.474865
 H        -2.334922        -0.479836         2.525838
 H        -4.459893         1.534226         1.265483
 H        -2.931189         2.332504         0.411804
 H        -5.552211         1.235928        -0.284469
 H        -3.271201         0.649444        -2.403499
 H        -5.092448         0.461869        -2.792257
