19
Iteration:  4741
 C         0.981539        -0.471463        -0.663334
 C        -0.309475        -0.129134        -0.258862
 C        -1.389413        -0.108714         0.209741
 C        -2.765385         0.152474         0.796347
 O        -2.710546         0.464004         2.253345
 C        -3.594405         1.292075         0.080728
 C        -4.615728         1.140796        -1.076162
 C        -4.271346         1.610277        -2.398119
 O        -5.219476         2.342443        -1.500526
 H         1.754344         0.370349        -0.713160
 H         1.497067        -1.211678        -0.037619
 H         0.957643        -0.963812        -1.642583
 H        -3.340568        -0.749842         0.598943
 H        -1.830028         0.316058         2.723859
 H        -4.262604         1.501123         0.873077
 H        -2.801258         2.080710         0.007033
 H        -5.363209         0.335414        -0.999449
 H        -3.312898         2.110557        -2.567472
 H        -4.844267         1.080256        -3.289503
