19
Iteration:  3477
 C         1.501881        -0.274344         0.605516
 C         0.154458        -0.191705         0.204477
 C        -0.984414         0.133859        -0.236542
 C        -2.538266         0.220900        -0.237965
 O        -3.070275        -0.093871         1.038563
 C        -3.011326         1.566531        -0.843567
 C        -4.486676         1.856340        -0.565731
 C        -5.637061         0.991002        -0.937971
 O        -5.509924         2.244544        -1.476431
 H         1.753692        -0.993068         1.453103
 H         2.146383        -0.688535        -0.175769
 H         2.000033         0.714457         0.888780
 H        -2.848482        -0.568663        -0.974505
 H        -3.995124        -0.122570         0.840466
 H        -2.451167         2.305536        -0.330914
 H        -2.826592         1.525343        -1.913810
 H        -4.617059         2.462299         0.377254
 H        -5.437097         0.047943        -1.561618
 H        -6.422775         0.868980        -0.215266
