19
Iteration:  4418
 C         0.310497        -0.264877        -1.299026
 C        -0.784947        -0.247313        -0.330165
 C        -1.783109         0.097690         0.261691
 C        -2.897896         0.411900         1.152143
 O        -2.518623         0.505419         2.512229
 C        -3.808808         1.352582         0.375538
 C        -3.959649         0.880787        -1.084409
 C        -3.542206         1.825550        -2.180134
 O        -4.990590         1.694353        -1.878392
 H         0.234397         0.564441        -1.948357
 H         1.292346        -0.147178        -0.837699
 H         0.473779        -1.114175        -1.986406
 H        -3.570781        -0.479302         1.263756
 H        -2.058402         1.255897         2.982176
 H        -4.751010         1.328837         0.958075
 H        -3.504094         2.362058         0.508617
 H        -4.045315        -0.205816        -1.468483
 H        -3.108344         2.762431        -1.920485
 H        -3.207253         1.379637        -3.155784
