19
Iteration:  3352charge 0 multiplicity 1
 C         1.531731         0.089728        -0.070086
 C         0.027766        -0.161017         0.195716
 C        -1.203729        -0.031953         0.037964
 C        -2.702480        -0.039422         0.136112
 O        -3.203206        -0.185523         1.456646
 C        -3.100209         1.387523        -0.453608
 C        -4.596862         1.592549        -0.507176
 C        -5.437193         1.121507        -1.664382
 O        -5.086152         2.577490        -1.511359
 H         2.361343         0.172997         0.739104
 H         1.809738        -0.851699        -0.675799
 H         1.757287         1.020257        -0.601828
 H        -3.030401        -0.813913        -0.590540
 H        -2.444799        -0.374773         2.019042
 H        -2.591654         2.211123         0.027791
 H        -2.674331         1.359179        -1.440221
 H        -5.139124         1.685978         0.437366
 H        -5.082386         0.473918        -2.467210
 H        -6.565864         0.933658        -1.404144
