19
Iteration:  3464
 C         1.511749        -0.246796         0.542917
 C         0.061984        -0.145064         0.242316
 C        -1.107496        -0.001648        -0.218610
 C        -2.442901         0.244183        -0.258777
 O        -2.979639        -0.154912         1.093328
 C        -3.043178         1.597795        -0.837626
 C        -4.518767         1.819314        -0.461733
 C        -5.569069         0.945494        -0.948147
 O        -5.480021         2.328879        -1.563510
 H         1.519240        -0.855271         1.559469
 H         2.137910        -0.606728        -0.264512
 H         1.771319         0.847751         0.773377
 H        -2.906756        -0.498653        -0.955027
 H        -3.970486         0.112993         1.127978
 H        -2.498749         2.456924        -0.678445
 H        -2.965570         1.456199        -1.922171
 H        -4.662492         2.328914         0.515397
 H        -5.325455         0.175032        -1.771301
 H        -6.444146         0.828938        -0.343563
