19
Iteration:  3490
 C         1.575686        -0.346110         0.647619
 C         0.135951        -0.127320         0.106195
 C        -1.027218         0.202229        -0.095286
 C        -2.463749         0.138707        -0.362072
 O        -3.140832         0.003553         0.983248
 C        -2.981879         1.572460        -0.860596
 C        -4.480577         1.844235        -0.532018
 C        -5.679254         0.923868        -0.803274
 O        -5.477407         2.243115        -1.522714
 H         1.490747        -1.043973         1.438011
 H         2.105467        -0.710139        -0.251074
 H         1.951118         0.634721         1.012905
 H        -2.737695        -0.745012        -0.996847
 H        -4.018071        -0.503461         0.982772
 H        -2.349017         2.393755        -0.364168
 H        -2.667371         1.818457        -1.897027
 H        -4.620115         2.335940         0.469042
 H        -5.619653         0.156228        -1.582614
 H        -6.587399         0.817642        -0.149367
