19
Iteration:  3982
 C         1.257364        -0.452373        -0.319526
 C        -0.128414        -0.020406        -0.020609
 C        -1.333810         0.104877        -0.197505
 C        -2.706713         0.295505         0.546009
 O        -2.696283         0.396349         1.976876
 C        -3.475914         1.537707         0.065989
 C        -4.585508         1.152874        -0.835421
 C        -4.728124         1.217563        -2.327119
 O        -5.391917         2.202404        -1.446800
 H         1.121510        -1.087469        -1.187741
 H         1.884805         0.432057        -0.492690
 H         1.598714        -1.041224         0.625368
 H        -3.280466        -0.591079         0.201319
 H        -2.208174        -0.348333         2.294158
 H        -3.902795         1.925123         1.051839
 H        -2.764729         2.171475        -0.561456
 H        -5.226744         0.390510        -0.408106
 H        -3.888504         1.605076        -2.847081
 H        -5.503614         0.545884        -2.825971
