19
Iteration:  1411charge 0 multiplicity 1
 C         0.720683        -0.057399        -0.974407
 C        -0.612591        -0.119607        -0.513353
 C        -1.691856         0.027358         0.056517
 C        -2.952660         0.099488         0.956383
 O        -2.511244         0.193901         2.300725
 C        -3.888736         1.168688         0.416198
 C        -4.194685         1.008357        -1.040114
 C        -3.786067         1.773681        -2.196132
 O        -5.034678         2.166405        -1.566049
 H         0.748119        -0.648144        -1.867139
 H         1.092578         0.947175        -1.004431
 H         1.396522        -0.456988        -0.215166
 H        -3.484465        -0.918170         0.932756
 H        -1.985363         1.054252         2.346403
 H        -4.867720         1.061510         0.958982
 H        -3.497900         2.180280         0.431710
 H        -4.813894         0.108656        -1.257514
 H        -2.929304         2.427429        -2.120164
 H        -4.037981         1.258565        -3.140119
