19
Iteration:  2703
 C         0.992018        -0.065197        -0.652104
 C        -0.462645         0.058775        -0.438348
 C        -1.597988        -0.011213        -0.044690
 C        -2.793597         0.053835         0.738408
 O        -2.520443         0.029511         2.215754
 C        -3.864952         1.165371         0.348905
 C        -4.348660         1.022837        -1.106246
 C        -4.089688         2.026850        -2.164355
 O        -5.278058         2.098503        -1.493611
 H         1.149976         0.059621        -1.711977
 H         1.527829         0.828517        -0.286303
 H         1.318853        -1.021737        -0.187653
 H        -3.334565        -0.932384         0.516323
 H        -1.548349        -0.065653         2.271512
 H        -4.553791         0.968623         1.147518
 H        -3.408557         2.066693         0.482375
 H        -4.713129         0.074450        -1.409029
 H        -3.392126         2.871537        -2.046600
 H        -4.280898         1.673303        -3.231631
