19
Iteration:  3555
 C         1.390886        -0.377468         0.512354
 C         0.038083        -0.039889         0.271634
 C        -1.114250         0.261291        -0.050793
 C        -2.493184         0.146962        -0.284019
 O        -3.168288        -0.133897         0.891102
 C        -2.970463         1.545496        -0.833370
 C        -4.479967         1.959943        -0.531446
 C        -5.449203         0.955775        -0.763738
 O        -5.480889         2.163783        -1.575809
 H         1.547836        -1.408270         0.927866
 H         1.993419        -0.474318        -0.489247
 H         2.116785         0.346383         1.054800
 H        -2.641840        -0.636607        -1.035162
 H        -2.564983         0.129073         1.625576
 H        -2.205256         2.350134        -0.572484
 H        -2.808906         1.579893        -1.955367
 H        -4.587231         2.739065         0.289346
 H        -5.184359         0.160929        -1.437756
 H        -6.354830         0.900929        -0.062685
