19
Iteration:  4651charge 0 multiplicity 1
 C         0.948932        -0.588004        -0.688427
 C        -0.460207        -0.232717        -0.328149
 C        -1.555618        -0.096182         0.069987
 C        -2.853005         0.237017         0.838357
 O        -2.515917         0.572359         2.168127
 C        -3.764885         1.457640         0.378177
 C        -4.289419         1.166158        -1.033803
 C        -4.067930         1.987819        -2.265966
 O        -5.378770         1.831159        -1.672629
 H         1.451734         0.350454        -0.832720
 H         1.358528        -1.110259         0.237333
 H         0.981966        -1.231992        -1.582265
 H        -3.406339        -0.701413         0.865773
 H        -1.617334         0.063875         2.263039
 H        -4.663539         1.618674         0.958238
 H        -3.165962         2.386773         0.396634
 H        -4.464740         0.105545        -1.292957
 H        -3.681626         3.039111        -2.147130
 H        -3.970850         1.436533        -3.162827
