19
Iteration:  2404charge 0 multiplicity 1
 C         1.430363         0.201013         0.288678
 C         0.075433        -0.120460        -0.091555
 C        -1.127948        -0.044359         0.047349
 C        -2.558706        -0.099657        -0.127765
 O        -3.316239        -0.348877         1.132058
 C        -3.000371         1.364456        -0.617509
 C        -4.459985         1.694661        -0.516364
 C        -5.567241         1.104371        -1.065971
 O        -5.149974         2.534043        -1.522130
 H         2.207151        -0.650625         0.121448
 H         1.921782         0.925122        -0.430705
 H         1.538575         0.749361         1.274761
 H        -2.923235        -0.964726        -0.751463
 H        -2.880977         0.133303         1.821420
 H        -2.448434         2.045217        -0.023247
 H        -2.600043         1.476775        -1.579818
 H        -4.772080         2.147392         0.465774
 H        -5.530733         0.386299        -1.860282
 H        -6.552310         1.169779        -0.558588
