19
Iteration:  1700charge 0 multiplicity 1
 C         0.419006         0.070579        -1.460539
 C        -0.715044        -0.125144        -0.391195
 C        -1.637280        -0.090264         0.383704
 C        -2.863879         0.051237         1.110091
 O        -2.749570         0.410386         2.502311
 C        -3.804830         1.139072         0.397629
 C        -4.045603         1.001455        -1.108779
 C        -3.527444         1.872341        -2.212241
 O        -4.929198         1.958219        -1.715830
 H         0.257979         1.075443        -1.841400
 H         1.437135         0.099816        -1.119539
 H         0.113897        -0.606303        -2.217183
 H        -3.261125        -1.007377         1.095362
 H        -2.822754        -0.356056         3.065828
 H        -4.753271         1.200436         1.019461
 H        -3.365643         2.166328         0.701484
 H        -4.161253        -0.046084        -1.488860
 H        -2.871228         2.750036        -1.907450
 H        -3.595115         1.383645        -3.226497
