19
Iteration:  2880
 C        -0.119102         0.397721        -1.727931
 C        -0.780527         0.284785        -0.466915
 C        -1.605953         0.141268         0.401235
 C        -2.886105        -0.001912         1.082213
 O        -2.910987         0.043449         2.574934
 C        -4.045518         0.864024         0.430160
 C        -3.963073         0.864615        -1.100832
 C        -3.039041         1.800341        -1.774480
 O        -4.526782         1.968269        -1.833432
 H        -0.755344         0.857666        -2.495205
 H         0.903632         0.831823        -1.583529
 H        -0.078990        -0.615417        -2.137678
 H        -3.244989        -1.010968         0.898760
 H        -2.278149         0.800101         2.641215
 H        -5.023854         0.507799         0.937370
 H        -4.014196         1.950878         0.572944
 H        -4.158082        -0.059853        -1.620813
 H        -2.430781         2.555719        -1.166304
 H        -2.617330         1.364588        -2.738499
