19
Iteration:  1161charge 0 multiplicity 1
 C         1.237093        -0.187153        -0.172632
 C        -0.216852         0.104059        -0.053312
 C        -1.401728        -0.069370        -0.200434
 C        -2.768649         0.105426         0.309033
 O        -2.729639        -0.277273         1.697099
 C        -3.280246         1.500447        -0.067803
 C        -4.705863         1.579887        -0.521827
 C        -4.980121         1.077821        -1.951095
 O        -5.041613         2.530589        -1.523459
 H         1.631515        -1.163406         0.142886
 H         1.465201        -0.185219        -1.278038
 H         1.859150         0.635769         0.240656
 H        -3.647716        -0.562132        -0.075318
 H        -1.964464         0.185368         2.030774
 H        -3.249369         2.192392         0.865422
 H        -2.798951         2.081478        -0.890366
 H        -5.548346         1.424542         0.208490
 H        -4.113570         0.975891        -2.532305
 H        -5.886379         0.619283        -2.329958
