19
Iteration:  2518charge 0 multiplicity 1
 C         1.397991         0.105162        -0.321782
 C         0.017661        -0.065882        -0.199304
 C        -1.176383        -0.020012         0.181353
 C        -2.613490        -0.027247         0.324225
 O        -3.219112        -0.328541         1.644695
 C        -3.202062         1.381744        -0.141775
 C        -4.700271         1.404309        -0.607639
 C        -5.059407         1.309374        -2.029565
 O        -5.169494         2.553839        -1.344679
 H         1.914440        -0.543353        -1.042194
 H         1.801681         1.101747        -0.651254
 H         1.789812        -0.125660         0.705166
 H        -3.057196        -0.792378        -0.262900
 H        -2.575647         0.071911         2.254582
 H        -3.185161         1.874251         0.831209
 H        -2.653371         2.022920        -0.840212
 H        -5.473009         1.214456         0.112185
 H        -4.236237         1.190174        -2.803000
 H        -6.078115         0.916647        -2.301807
