19
Iteration:  2534charge 0 multiplicity 1
 C         1.449794         0.044468        -0.354584
 C        -0.019506        -0.078870        -0.219343
 C        -1.225744         0.065609         0.201682
 C        -2.713803        -0.001329         0.287278
 O        -3.136118        -0.243389         1.630181
 C        -3.328795         1.325708        -0.009940
 C        -4.671100         1.313299        -0.637214
 C        -4.905392         1.345385        -2.060517
 O        -5.212999         2.569976        -1.314741
 H         1.781605        -0.605365        -1.184800
 H         1.481954         1.076054        -0.664046
 H         1.976572        -0.275853         0.534991
 H        -2.928105        -0.973290        -0.279159
 H        -2.776302         0.356353         2.338096
 H        -3.406412         2.004051         0.899717
 H        -2.501235         1.775526        -0.733624
 H        -5.355046         0.618554        -0.060193
 H        -4.046952         1.515011        -2.670264
 H        -5.669275         0.703867        -2.445794
