19
Iteration:  4342
 C         0.541793        -0.225395        -1.263254
 C        -0.703762        -0.044719        -0.421635
 C        -1.669648         0.150313         0.309086
 C        -2.905238         0.264834         1.124834
 O        -2.588541         0.638665         2.394679
 C        -4.019355         1.185449         0.315884
 C        -4.392291         0.834088        -1.067722
 C        -3.642227         1.339470        -2.174023
 O        -4.672351         2.113280        -1.652701
 H         0.615179         0.253895        -2.172281
 H         1.487682        -0.017497        -0.783627
 H         0.663090        -1.293402        -1.509684
 H        -3.360273        -0.764884         1.067938
 H        -1.698168         1.055460         2.411002
 H        -4.899783         1.287702         1.022134
 H        -3.572501         2.197387         0.217807
 H        -5.180884         0.042469        -1.472343
 H        -2.593764         1.707957        -2.012536
 H        -3.778886         1.053915        -3.226015
