19
Iteration:  3076
 C         1.104417        -0.174398        -0.652689
 C        -0.302837         0.084979        -0.396927
 C        -1.411026         0.251148        -0.014372
 C        -2.812964         0.198645         0.621314
 O        -2.666678         0.067878         2.063545
 C        -3.902374         1.248220         0.386171
 C        -4.577834         1.040997        -0.922630
 C        -4.064088         1.582446        -2.175479
 O        -5.202356         2.188013        -1.461626
 H         1.719429         0.688137        -0.459320
 H         1.572691        -0.967110         0.033173
 H         1.061320        -0.437673        -1.719720
 H        -3.229552        -0.790553         0.226779
 H        -3.256325        -0.671625         2.317109
 H        -4.534882         1.131385         1.306297
 H        -3.395365         2.216483         0.366015
 H        -5.014350         0.032099        -1.127715
 H        -3.145509         2.262774        -2.156685
 H        -4.261609         1.258249        -3.285094
