19
Iteration:  3657
 C         1.407685        -0.144203         0.211554
 C        -0.030035         0.039164         0.127952
 C        -1.249465        -0.079869        -0.151000
 C        -2.653394         0.109338         0.061648
 O        -3.145231        -0.124960         1.398949
 C        -2.955681         1.574790        -0.641120
 C        -4.481095         1.881048        -0.498972
 C        -5.507116         1.020263        -1.162078
 O        -5.167866         2.210585        -1.758586
 H         1.606559        -1.214090         0.322452
 H         1.857858         0.233685        -0.848523
 H         1.935088         0.340889         1.039955
 H        -3.230893        -0.558961        -0.589722
 H        -2.459917        -0.703615         1.810530
 H        -2.263813         2.443361        -0.393449
 H        -2.441535         1.510955        -1.628748
 H        -4.728829         2.385360         0.409792
 H        -5.192180         0.108530        -1.765615
 H        -6.447220         0.870973        -0.731322
