19
Iteration:  2727charge 0 multiplicity 1
 C         0.870071         0.055950        -0.776866
 C        -0.508284        -0.093918        -0.545597
 C        -1.639431         0.020596         0.014831
 C        -2.900458        -0.058131         0.815366
 O        -2.554846         0.085596         2.137624
 C        -3.870743         1.139810         0.383648
 C        -4.244218         1.092315        -1.070241
 C        -3.877977         2.035665        -2.059773
 O        -5.240942         2.004060        -1.502875
 H         1.050443         0.351734        -1.827975
 H         1.259422         0.995441        -0.283756
 H         1.318445        -0.849004        -0.334353
 H        -3.322644        -1.128944         0.774541
 H        -2.159060         1.025573         2.145058
 H        -4.659635         1.077459         1.048641
 H        -3.247801         1.878290         0.688422
 H        -4.490473         0.094435        -1.358610
 H        -3.170821         2.895255        -1.856419
 H        -3.789807         1.494299        -3.014636
