19
Iteration:  4643
 C         0.888612        -0.581707        -0.679850
 C        -0.464009        -0.217476        -0.354917
 C        -1.645897        -0.069772         0.096872
 C        -2.839952         0.257027         0.807253
 O        -2.498745         0.562614         2.189634
 C        -3.760198         1.453688         0.349237
 C        -4.214760         1.126761        -1.005807
 C        -4.112933         2.020999        -2.282671
 O        -5.349036         1.814566        -1.687459
 H         1.550137         0.313729        -0.848969
 H         1.326314        -1.100523         0.120912
 H         0.843432        -1.268528        -1.503049
 H        -3.463179        -0.659251         0.835239
 H        -1.590087         0.158118         2.414953
 H        -4.437938         1.162456         1.154036
 H        -3.190938         2.410941         0.546372
 H        -4.231046         0.049546        -1.038837
 H        -3.633078         3.031872        -2.263152
 H        -3.821243         1.588415        -3.343029
