19
Iteration:  2913
 C        -0.046021         0.456345        -1.574282
 C        -0.958203         0.220837        -0.495660
 C        -1.733742         0.063275         0.360295
 C        -2.946753        -0.140272         1.119421
 O        -2.692683         0.088212         2.576274
 C        -4.010764         0.901790         0.494366
 C        -3.888784         0.897792        -1.119893
 C        -3.095314         1.808605        -1.991954
 O        -4.548772         1.987438        -1.815299
 H        -0.172532         1.246518        -2.293846
 H         1.009886         0.738990        -1.337637
 H         0.042758        -0.471831        -2.135322
 H        -3.430605        -1.087440         1.116413
 H        -3.271458         0.870218         2.860822
 H        -5.020695         0.590369         0.995129
 H        -3.637880         1.894394         0.789813
 H        -4.163251        -0.049102        -1.589463
 H        -2.390943         2.669314        -1.710464
 H        -2.916531         1.463747        -3.086669
