19
Iteration:  3079charge 0 multiplicity 1
 C         1.102829        -0.177481        -0.639715
 C        -0.264882         0.067389        -0.367971
 C        -1.426506         0.264710        -0.030442
 C        -2.811141         0.198500         0.622686
 O        -2.657670         0.048352         2.071010
 C        -3.897650         1.265603         0.369186
 C        -4.594505         1.066680        -0.917708
 C        -4.081163         1.589762        -2.201943
 O        -5.238822         2.196037        -1.465004
 H         1.806957         0.653458        -0.428279
 H         1.604011        -0.966054        -0.056823
 H         1.195782        -0.496959        -1.687927
 H        -3.146020        -0.826121         0.244730
 H        -3.061216        -0.762807         2.345340
 H        -4.619667         1.107824         1.365160
 H        -3.434094         2.274317         0.368329
 H        -4.991136         0.061162        -1.118319
 H        -3.039767         2.161269        -2.218286
 H        -4.287911         1.184766        -3.243355
