19
Iteration:  4059
 C         1.191195        -0.319580        -0.657096
 C        -0.175670        -0.100691        -0.200482
 C        -1.348698         0.152640         0.135685
 C        -2.769607         0.229957         0.648957
 O        -2.924333         0.398261         1.988506
 C        -3.462061         1.540057         0.208129
 C        -4.657143         1.168974        -0.761486
 C        -4.463078         1.077176        -2.194391
 O        -5.202501         2.215927        -1.631231
 H         1.054638        -0.569996        -1.708388
 H         1.685828         0.703566        -0.656605
 H         1.813210        -1.096742        -0.017247
 H        -3.352586        -0.578679         0.084331
 H        -2.308280        -0.085176         2.584305
 H        -3.722772         2.025912         1.172032
 H        -2.758155         2.175793        -0.383736
 H        -5.416217         0.601633        -0.281455
 H        -3.533366         1.256998        -2.721857
 H        -5.210398         0.362944        -2.666317
