19
Iteration:  4595
 C         0.682030        -0.609916        -0.892409
 C        -0.593389        -0.187189        -0.342698
 C        -1.613209         0.123021         0.181804
 C        -2.875962         0.327406         0.934709
 O        -2.563022         0.614266         2.301270
 C        -3.717739         1.384554         0.328270
 C        -4.028084         0.978656        -1.188465
 C        -3.975087         2.119572        -2.138809
 O        -5.277147         1.629918        -1.694781
 H         1.204746         0.239304        -1.256648
 H         1.320305        -1.104076        -0.061379
 H         0.447772        -1.343622        -1.706621
 H        -3.317596        -0.664224         0.904759
 H        -1.707971         0.161539         2.415938
 H        -4.672824         1.333476         0.801981
 H        -3.174535         2.309968         0.393154
 H        -3.837333        -0.067924        -1.581633
 H        -3.584765         3.098777        -1.768535
 H        -3.776313         2.087949        -3.153770
