19
Iteration:    65
 C         1.596749        -0.125606         0.163493
 C         0.171229         0.083697         0.138290
 C        -1.056345         0.074674        -0.004263
 C        -2.558523        -0.002964        -0.219463
 O        -3.107121        -0.811532         0.915853
 C        -3.201052         1.350814        -0.550904
 C        -4.618197         1.735794        -0.274988
 C        -5.642984         1.430297        -1.367503
 O        -5.199500         2.750469        -1.134357
 H         1.790964        -1.068821         0.693104
 H         1.993466        -0.083219        -0.871992
 H         2.148951         0.571220         0.818828
 H        -2.690121        -0.603706        -1.125093
 H        -4.025395        -0.562787         1.034409
 H        -2.655534         2.182008        -0.022282
 H        -2.867832         1.632515        -1.616479
 H        -5.006482         1.853186         0.734124
 H        -5.333715         0.969941        -2.397512
 H        -6.728299         1.113355        -1.107453
