19
Iteration:  3572charge 0 multiplicity 1
 C         1.464546        -0.329098         0.459268
 C         0.031225        -0.120470         0.249917
 C        -1.128312         0.081784        -0.002928
 C        -2.516260         0.291476        -0.311563
 O        -3.121893        -0.231299         1.005542
 C        -2.937861         1.701261        -0.887505
 C        -4.417864         1.947869        -0.568192
 C        -5.575025         0.974416        -0.812441
 O        -5.462245         2.142869        -1.589155
 H         1.714762        -1.277193         0.987722
 H         2.052709        -0.281933        -0.400817
 H         1.800317         0.446548         1.108929
 H        -2.965964        -0.482028        -0.964894
 H        -3.008248         0.582105         1.596605
 H        -2.409980         2.488180        -0.282765
 H        -2.765991         1.563737        -1.950026
 H        -4.479398         2.498199         0.362869
 H        -5.281334        -0.008259        -1.275003
 H        -6.361335         0.902367        -0.129911
