19
Iteration:  3505
 C         1.445558        -0.381245         0.578409
 C         0.183807        -0.004530         0.117982
 C        -1.022869         0.122575         0.017735
 C        -2.479483         0.264491        -0.343887
 O        -3.159813         0.053472         0.894984
 C        -3.023964         1.538013        -0.899711
 C        -4.494245         1.748657        -0.482694
 C        -5.639727         0.971935        -0.805692
 O        -5.409903         2.182419        -1.501488
 H         1.352566        -1.187421         1.310528
 H         2.280817        -0.739965        -0.024768
 H         1.950569         0.427874         1.043885
 H        -2.665549        -0.527208        -1.095479
 H        -3.635833        -0.732939         0.697624
 H        -2.453117         2.270660        -0.242138
 H        -2.986727         1.649503        -2.000852
 H        -4.526674         2.397703         0.347606
 H        -5.451099         0.011790        -1.263286
 H        -6.377814         1.137648        -0.019427
