19
Iteration:   532
 C         1.221525         0.042109        -0.548020
 C        -0.117446         0.082998        -0.065005
 C        -1.285392        -0.210535         0.092433
 C        -2.711932        -0.030004         0.373481
 O        -3.184296        -0.107031         1.703693
 C        -3.058708         1.481019        -0.184866
 C        -4.603628         1.317109        -0.599782
 C        -4.727517         1.374589        -1.983667
 O        -5.199038         2.445286        -1.186713
 H         1.190278         0.299499        -1.606789
 H         1.941122         0.621366         0.053776
 H         1.460484        -1.015312        -0.353181
 H        -3.236292        -0.553696        -0.420401
 H        -3.522916        -1.008122         1.915639
 H        -3.147619         2.250273         0.579149
 H        -2.602475         1.873548        -1.121517
 H        -5.139365         0.397540        -0.058680
 H        -3.785816         1.553383        -2.490344
 H        -5.623798         1.078662        -2.498697
