19
Iteration:  2736charge 0 multiplicity 1
 C         0.847898         0.104959        -0.845973
 C        -0.594654        -0.093073        -0.504986
 C        -1.660128        -0.057177        -0.016664
 C        -2.879315        -0.045450         0.762527
 O        -2.562117         0.134726         2.165400
 C        -3.884635         1.108556         0.417071
 C        -4.212190         1.020724        -1.008691
 C        -3.825117         2.036376        -1.997983
 O        -5.176774         2.005523        -1.541740
 H         0.912168         0.248897        -1.917931
 H         1.218175         0.935158        -0.232524
 H         1.568179        -0.697668        -0.563420
 H        -3.416061        -1.028706         0.600551
 H        -2.544902         1.099611         2.437156
 H        -4.721684         1.115644         1.130072
 H        -3.377181         2.048565         0.496698
 H        -4.332574         0.058888        -1.451832
 H        -3.252938         2.975409        -1.802882
 H        -3.726170         1.674269        -3.062460
