19
Iteration:  3465
 C         1.520607        -0.252864         0.544808
 C         0.063097        -0.147737         0.242935
 C        -1.101664         0.008101        -0.223535
 C        -2.438900         0.247336        -0.259744
 O        -2.987700        -0.153451         1.088907
 C        -3.044574         1.590415        -0.836024
 C        -4.511224         1.822575        -0.466143
 C        -5.571101         0.948114        -0.946047
 O        -5.486859         2.327170        -1.559578
 H         1.524689        -0.835708         1.549563
 H         2.139446        -0.618960        -0.257282
 H         1.756315         0.841185         0.808499
 H        -2.930122        -0.507085        -0.909363
 H        -3.975855         0.104095         1.084892
 H        -2.526854         2.462863        -0.682792
 H        -2.909501         1.459629        -1.910805
 H        -4.678565         2.356657         0.510022
 H        -5.358194         0.138818        -1.754486
 H        -6.435064         0.816826        -0.340524
