19
Iteration:  3694
 C         1.422219        -0.042431        -0.005201
 C        -0.039004        -0.194437         0.032714
 C        -1.214218        -0.056031         0.123224
 C        -2.664984         0.034220         0.117375
 O        -3.082117         0.043977         1.464811
 C        -3.053414         1.453276        -0.455195
 C        -4.598101         1.801738        -0.503648
 C        -5.474655         1.049246        -1.408634
 O        -5.054484         2.304842        -1.788445
 H         1.984645        -1.018031        -0.089018
 H         1.753338         0.499360        -0.828889
 H         1.806073         0.518123         0.860385
 H        -3.112554        -0.792447        -0.515136
 H        -2.760660        -0.737053         2.024643
 H        -2.635076         2.185780         0.424054
 H        -2.685907         1.500615        -1.508399
 H        -5.126432         2.169236         0.433796
 H        -4.976882         0.257665        -1.926026
 H        -6.589172         0.885667        -1.257350
