19
Iteration:  1420
 C         0.728275        -0.061942        -0.978610
 C        -0.645200        -0.142026        -0.545664
 C        -1.747114        -0.005735         0.018833
 C        -2.899070         0.161447         0.915314
 O        -2.515682         0.245712         2.277222
 C        -3.966625         1.137522         0.407305
 C        -4.277450         0.967945        -1.035371
 C        -3.684965         1.768735        -2.122500
 O        -5.022166         2.158389        -1.540078
 H         1.088522        -0.390555        -1.895088
 H         0.893955         0.972316        -1.073310
 H         1.292219        -0.551137        -0.228880
 H        -3.382882        -0.808836         0.968844
 H        -2.009901         1.090932         2.486445
 H        -4.856754         1.152755         1.049338
 H        -3.491307         2.110146         0.670907
 H        -4.587180        -0.073458        -1.243584
 H        -2.749694         2.352557        -1.964965
 H        -3.676958         1.353865        -3.197991
