19
Iteration:   791
 C         1.566466        -0.221137         0.076023
 C         0.201320         0.148352        -0.062162
 C        -1.022651         0.083776         0.177187
 C        -2.483175         0.147330         0.009348
 O        -3.388284        -0.371452         1.072123
 C        -3.095850         1.396721        -0.568210
 C        -4.703972         1.500956        -0.386336
 C        -5.568798         1.230477        -1.487163
 O        -5.197871         2.621875        -1.220830
 H         2.339179         0.549246        -0.084937
 H         1.850703        -0.655099         1.075364
 H         1.932716        -1.054971        -0.569070
 H        -2.505725        -0.549102        -0.888724
 H        -2.834005        -0.939093         1.599235
 H        -2.605703         2.324931        -0.135621
 H        -2.691236         1.374325        -1.566685
 H        -5.033865         1.383653         0.720467
 H        -5.299008         0.924538        -2.551311
 H        -6.502462         0.801851        -1.065858
