19
Iteration:  3831charge 0 multiplicity 1
 C         1.344814        -0.218675        -0.465882
 C        -0.073333        -0.242041        -0.124375
 C        -1.131421         0.049258         0.401904
 C        -2.572406         0.164885         0.584833
 O        -3.104887         0.333440         1.864297
 C        -3.243000         1.350646        -0.331376
 C        -4.685583         1.166903        -0.796135
 C        -4.965384         1.241903        -2.227032
 O        -5.263560         2.392461        -1.344705
 H         1.538223        -1.047547        -1.091462
 H         1.441692         0.745860        -1.008658
 H         1.819000        -0.217378         0.493416
 H        -3.056591        -0.765593         0.131307
 H        -2.624158         0.500282         2.631316
 H        -3.286537         2.199440         0.318378
 H        -2.490754         1.619784        -1.139386
 H        -5.422546         0.645527        -0.226661
 H        -4.160764         1.346124        -2.993821
 H        -5.945345         0.804568        -2.648874
