19
Iteration:  1017charge 0 multiplicity 1
 C         1.521189        -0.186621         0.061766
 C         0.095888         0.096886         0.093606
 C        -1.133412         0.144207         0.109159
 C        -2.526200         0.012848        -0.083118
 O        -3.389987        -0.311340         1.100187
 C        -3.051395         1.346567        -0.663699
 C        -4.489977         1.634961        -0.342197
 C        -5.547954         1.156680        -1.364342
 O        -5.180823         2.536661        -1.299621
 H         1.875752        -0.181693         1.104190
 H         1.761707        -1.213024        -0.272507
 H         2.104156         0.563799        -0.483664
 H        -2.845312        -0.676985        -0.895516
 H        -2.879315         0.116082         1.807437
 H        -2.497835         2.249665        -0.256181
 H        -2.751705         1.324826        -1.770325
 H        -4.489701         1.818153         0.752297
 H        -5.012167         0.551792        -2.085820
 H        -6.558269         0.970692        -1.187309
