19
Iteration:  2300charge 0 multiplicity 1
 C         1.473156        -0.204309         0.790169
 C         0.197124        -0.076212         0.043811
 C        -0.985055         0.047235        -0.226755
 C        -2.463035         0.252259        -0.368258
 O        -3.185259        -0.091508         0.813103
 C        -3.064685         1.519166        -1.073535
 C        -4.482380         1.853365        -0.399149
 C        -5.667944         0.972598        -0.690528
 O        -5.439607         2.240623        -1.358286
 H         1.584084        -1.144472         1.333200
 H         2.351089        -0.173037         0.122352
 H         1.613747         0.454427         1.641355
 H        -2.723188        -0.576220        -1.167076
 H        -2.560938        -0.724844         1.149292
 H        -2.312810         2.411535        -1.220836
 H        -3.472433         1.149760        -2.070489
 H        -4.627570         2.421569         0.511877
 H        -5.514468         0.106037        -1.343650
 H        -6.428986         0.918606         0.092013
