19
Iteration:  3170charge 0 multiplicity 1
 C         1.288607        -0.118657        -0.365367
 C        -0.221911        -0.001105        -0.392340
 C        -1.396734         0.072063         0.055696
 C        -2.757857         0.101311         0.469663
 O        -2.799788         0.009415         1.935811
 C        -3.459396         1.339294         0.068243
 C        -4.580854         1.137466        -0.859463
 C        -4.505857         1.539580        -2.258383
 O        -5.298264         2.279066        -1.255571
 H         1.607501         0.677827         0.325396
 H         1.616208        -1.073376         0.033134
 H         1.580444         0.069500        -1.409048
 H        -3.323813        -0.741739        -0.010375
 H        -3.742795         0.052501         2.274037
 H        -3.973682         1.802001         1.038636
 H        -2.747917         2.137662        -0.344108
 H        -5.163017         0.269886        -0.509335
 H        -3.621426         1.981758        -2.622612
 H        -5.044905         0.960261        -3.000730
