19
Iteration:  3040
 C         0.888844        -0.006675        -0.829053
 C        -0.465560         0.173880        -0.449945
 C        -1.585409         0.174440         0.104351
 C        -2.845403         0.026210         0.762575
 O        -2.677925         0.024786         2.229711
 C        -3.813173         1.131321         0.382965
 C        -4.460835         0.969471        -1.033334
 C        -3.814480         1.663423        -2.165139
 O        -5.102566         2.169037        -1.524201
 H         1.408853         0.964752        -1.053185
 H         1.480444        -0.799684        -0.307609
 H         0.956061        -0.465602        -1.892864
 H        -3.298829        -0.962732         0.538604
 H        -3.003754         0.908159         2.548238
 H        -4.581106         1.347326         1.013892
 H        -3.236134         2.071708         0.331827
 H        -4.997565         0.029196        -1.275631
 H        -3.103313         2.431162        -2.015250
 H        -3.973404         1.374325        -3.162016
