19
Iteration:  1078charge 0 multiplicity 1
 C         1.510858        -0.138587        -0.289621
 C         0.112148        -0.165466         0.140307
 C        -1.115129         0.070006         0.303729
 C        -2.646807         0.127787         0.100303
 O        -3.349325        -0.273679         1.300324
 C        -3.047721         1.515016        -0.330628
 C        -4.497581         1.639632        -0.554877
 C        -5.355190         1.089078        -1.606703
 O        -5.259759         2.521830        -1.420535
 H         2.063867        -0.606190         0.558726
 H         1.699725        -0.676048        -1.224044
 H         1.927990         0.877939        -0.377306
 H        -2.942021        -0.542568        -0.668884
 H        -2.808205         0.027246         2.064945
 H        -2.829572         2.303675         0.333564
 H        -2.650320         1.800958        -1.284917
 H        -4.965211         1.557668         0.434079
 H        -4.910085         0.568521        -2.490799
 H        -6.372817         0.660728        -1.310396
