19
Iteration:  4863
 C         0.870158        -0.271974        -0.826617
 C        -0.395470         0.004651        -0.321129
 C        -1.553566         0.090952         0.079278
 C        -2.969725         0.213522         0.737314
 O        -2.831064         0.183235         2.151874
 C        -3.574305         1.566509         0.342960
 C        -4.618208         1.372996        -0.709789
 C        -4.271794         0.956207        -2.177148
 O        -4.616749         2.323724        -1.756587
 H         1.650282         0.497617        -0.586728
 H         1.249742        -1.167699        -0.414427
 H         0.993431        -0.392297        -1.922393
 H        -3.598166        -0.705343         0.369541
 H        -2.090568        -0.522372         2.299934
 H        -4.044239         1.951085         1.223319
 H        -2.846069         2.316981         0.031388
 H        -5.620583         1.018056        -0.448187
 H        -3.191267         0.811893        -2.471031
 H        -5.164312         0.493948        -2.630943
