19
Iteration:  4938charge 0 multiplicity 1
 C         0.736683        -0.094442        -0.981200
 C        -0.646320        -0.005953        -0.462575
 C        -1.685521         0.112859         0.121631
 C        -2.974474         0.195746         0.791037
 O        -2.744887         0.164935         2.242295
 C        -3.829597         1.463051         0.513401
 C        -4.567128         1.449094        -0.759162
 C        -4.254396         0.837104        -2.112379
 O        -4.138095         2.251647        -1.864477
 H         1.525824         0.668111        -0.623866
 H         1.177669        -1.075769        -0.864862
 H         0.897893         0.122546        -2.074787
 H        -3.347973        -0.843601         0.628002
 H        -1.846287         0.245739         2.531021
 H        -4.477043         1.565274         1.364773
 H        -3.190349         2.411682         0.675098
 H        -5.630904         1.626006        -0.549770
 H        -3.352979         0.222646        -2.286749
 H        -4.948634         0.500715        -2.902873
