19
Iteration:  2813charge 0 multiplicity 1
 C         0.350837         0.228043        -1.528077
 C        -0.710766         0.188520        -0.526255
 C        -1.627572         0.083321         0.312542
 C        -2.922891        -0.016191         1.042107
 O        -2.771952         0.185024         2.530096
 C        -3.999433         0.824452         0.381952
 C        -4.021383         0.909754        -1.140132
 C        -3.395130         1.990925        -1.941103
 O        -4.778039         2.024054        -1.657729
 H         0.139703         0.447415        -2.569741
 H         1.195236         0.887404        -1.216981
 H         0.707699        -0.797750        -1.665184
 H        -3.255064        -1.049174         0.885540
 H        -3.175974        -0.405780         3.161365
 H        -5.015424         0.414492         0.750597
 H        -3.887765         1.842727         0.827607
 H        -4.155279         0.034148        -1.725625
 H        -2.776955         2.833341        -1.449928
 H        -3.039192         1.535042        -2.877995
