19
Iteration:  3678
 C         1.396842        -0.095629         0.078336
 C        -0.026442        -0.073765         0.123994
 C        -1.221450        -0.061194         0.029933
 C        -2.724459         0.083175         0.030216
 O        -3.056657        -0.042642         1.451008
 C        -3.117016         1.413206        -0.479482
 C        -4.518999         1.883971        -0.556364
 C        -5.391782         0.954260        -1.269663
 O        -5.150375         2.357197        -1.795645
 H         1.839399        -1.086662         0.103692
 H         1.818590         0.438027        -0.908531
 H         1.886424         0.429910         0.918346
 H        -3.209701        -0.768091        -0.417336
 H        -2.545155        -0.854156         1.751361
 H        -2.434729         2.038491        -0.049981
 H        -2.758452         1.631446        -1.500038
 H        -4.697247         2.619759         0.167109
 H        -4.975160         0.077618        -1.857317
 H        -6.373267         0.790052        -0.927156
