19
Iteration:  4702charge 0 multiplicity 1
 C         1.053189        -0.508759        -0.666832
 C        -0.367177        -0.338366        -0.186575
 C        -1.528338         0.042261         0.149074
 C        -2.819794         0.171399         0.731591
 O        -2.634358         0.623046         2.120215
 C        -3.697641         1.307202         0.188858
 C        -4.406185         1.055927        -1.136453
 C        -4.185769         1.765818        -2.385961
 O        -5.279862         2.168473        -1.362535
 H         1.485367         0.462680        -0.836964
 H         1.561237        -1.180142         0.062992
 H         0.959405        -0.984638        -1.665931
 H        -3.279895        -0.848677         0.832986
 H        -1.992320        -0.110258         2.372529
 H        -4.551299         1.534187         0.946369
 H        -3.283896         2.289379         0.128572
 H        -4.837070         0.049680        -1.329119
 H        -3.361747         2.481534        -2.489702
 H        -4.645298         1.303065        -3.185846
