19
Iteration:  2853charge 0 multiplicity 1
 C         0.048326         0.319536        -1.744564
 C        -0.823347         0.231461        -0.507024
 C        -1.551481         0.285233         0.425649
 C        -2.873172        -0.077545         1.002306
 O        -3.053264         0.216669         2.393295
 C        -3.930776         0.839004         0.420271
 C        -3.967717         0.836215        -1.006940
 C        -3.139776         1.841960        -1.696548
 O        -4.579165         1.949025        -1.715688
 H        -0.575104         0.703020        -2.549229
 H         0.973308         0.702934        -1.402397
 H         0.364802        -0.726950        -1.982941
 H        -3.194915        -1.130819         0.755352
 H        -2.259032        -0.329144         2.680282
 H        -4.822428         0.450662         0.941438
 H        -3.894503         1.972374         0.658256
 H        -4.251993        -0.138162        -1.484512
 H        -2.600479         2.640238        -1.261330
 H        -2.747450         1.487508        -2.624630
