19
Iteration:  2433
 C         1.511935         0.204860         0.090341
 C         0.050075         0.057690         0.001563
 C        -1.169609        -0.230464         0.014297
 C        -2.629047        -0.020879         0.006399
 O        -3.310437        -0.429755         1.279062
 C        -2.986906         1.414140        -0.524544
 C        -4.557812         1.649655        -0.413953
 C        -5.597531         1.158357        -1.353193
 O        -4.991316         2.495761        -1.491586
 H         2.000634        -0.699486        -0.242276
 H         1.728081         1.083117        -0.541081
 H         1.877273         0.595995         1.021407
 H        -3.085239        -0.796706        -0.705883
 H        -2.948983         0.045083         2.038734
 H        -2.431368         2.363093        -0.186420
 H        -2.782371         1.355005        -1.703603
 H        -4.967532         2.073157         0.503502
 H        -5.337658         0.449558        -2.120773
 H        -6.672682         1.251706        -1.259208
