19
Iteration:  3985charge 0 multiplicity 1
 C         1.239309        -0.464889        -0.300475
 C        -0.130442        -0.010836        -0.033033
 C        -1.372169         0.126998        -0.191907
 C        -2.687203         0.264562         0.538984
 O        -2.695023         0.405378         2.001248
 C        -3.466758         1.550792         0.079074
 C        -4.594026         1.166604        -0.851814
 C        -4.732971         1.196588        -2.325074
 O        -5.377674         2.206234        -1.453625
 H         1.122615        -1.011144        -1.201834
 H         1.852847         0.437364        -0.528657
 H         1.688627        -1.023741         0.481506
 H        -3.249290        -0.574718         0.148605
 H        -2.242664        -0.489509         2.217469
 H        -3.867371         1.900777         1.051081
 H        -2.687437         2.229628        -0.576765
 H        -5.121084         0.240055        -0.443015
 H        -3.884040         1.664015        -2.855563
 H        -5.514231         0.495810        -2.768630
