19
Iteration:  4975
 C         0.553908         0.015659        -1.044045
 C        -0.746909         0.146998        -0.508880
 C        -1.879529         0.046137        -0.008020
 C        -3.012250         0.187867         0.919697
 O        -2.671535         0.056985         2.271365
 C        -3.770217         1.505617         0.554648
 C        -4.596223         1.490761        -0.818086
 C        -4.037676         0.726761        -2.000572
 O        -3.921315         2.170820        -1.881621
 H         1.199056         0.609152        -0.493987
 H         0.841893        -1.043041        -1.011974
 H         0.365508         0.296150        -2.071150
 H        -3.648580        -0.663046         0.580409
 H        -2.319077         0.910101         2.286924
 H        -4.511051         1.632752         1.349461
 H        -3.098766         2.248475         0.491046
 H        -5.657530         1.794477        -0.733474
 H        -3.057575         0.315799        -1.741416
 H        -4.716837         0.404582        -2.758382
