19
Iteration:  4062charge 0 multiplicity 1
 C         1.157717        -0.305919        -0.665262
 C        -0.164867        -0.092307        -0.183751
 C        -1.357447         0.137513         0.162291
 C        -2.770218         0.214687         0.625635
 O        -2.926737         0.406398         1.990925
 C        -3.486442         1.530924         0.207704
 C        -4.640516         1.162271        -0.763103
 C        -4.466249         1.074887        -2.191777
 O        -5.171043         2.206060        -1.621787
 H         1.052562        -0.599342        -1.706566
 H         1.696269         0.682431        -0.674038
 H         1.759947        -1.035004        -0.157923
 H        -3.363635        -0.483604         0.063683
 H        -2.255719        -0.077368         2.438654
 H        -3.709428         2.046549         1.163760
 H        -2.743377         2.305555        -0.398455
 H        -5.435926         0.681764        -0.224362
 H        -3.521515         1.251825        -2.829162
 H        -5.176544         0.366421        -2.606862
