19
Iteration:  1357
 C         0.811403        -0.178100        -1.078859
 C        -0.338832         0.045418        -0.227325
 C        -1.417888        -0.044746         0.308347
 C        -2.858603         0.149341         0.785927
 O        -2.897755         0.056709         2.254277
 C        -3.536874         1.392511         0.229667
 C        -4.397135         1.071077        -0.963748
 C        -4.040141         1.724004        -2.247016
 O        -5.198289         2.141992        -1.529818
 H         0.668010        -0.999223        -1.866781
 H         0.997744         0.877742        -1.505088
 H         1.768441        -0.315551        -0.460209
 H        -3.409994        -0.834172         0.483745
 H        -1.998888         0.170135         2.650874
 H        -4.100766         1.793033         1.141514
 H        -2.780116         2.127475        -0.054953
 H        -4.920315         0.085398        -0.918149
 H        -3.092928         2.230056        -2.194681
 H        -4.259721         1.359378        -3.263025
