19
Iteration:  1562charge 0 multiplicity 1
 C         0.229512        -0.030584        -1.657752
 C        -0.691228        -0.061367        -0.511758
 C        -1.534430         0.030128         0.327510
 C        -2.898157         0.032655         1.146631
 O        -2.915045         0.527092         2.487447
 C        -3.933318         0.937339         0.476564
 C        -4.062119         0.824677        -1.152963
 C        -3.269263         1.881921        -1.824545
 O        -4.747806         2.014788        -1.717205
 H        -0.366264         0.362237        -2.558426
 H         1.010785         0.802117        -1.482042
 H         0.651920        -1.054091        -1.922613
 H        -3.273425        -0.963288         1.270345
 H        -2.857753         1.524373         2.316795
 H        -4.965190         0.685952         0.834254
 H        -3.812029         2.002263         0.835156
 H        -4.210811        -0.160611        -1.641839
 H        -2.590070         2.686919        -1.380676
 H        -3.052700         1.652105        -2.945058
