19
Iteration:  3672
 C         1.407227        -0.110401         0.098491
 C        -0.016835        -0.025004         0.157069
 C        -1.248807        -0.067410        -0.044582
 C        -2.716505         0.079577         0.036337
 O        -3.070343        -0.085435         1.457498
 C        -3.076310         1.469212        -0.541579
 C        -4.496707         1.898118        -0.591059
 C        -5.386991         0.952463        -1.220475
 O        -5.165917         2.337738        -1.789425
 H         1.824864        -1.154674         0.121889
 H         1.844139         0.307849        -0.735592
 H         1.889808         0.440322         0.910268
 H        -3.255530        -0.766060        -0.490448
 H        -2.577945        -0.796410         1.812433
 H        -2.355284         2.204638         0.121601
 H        -2.918734         1.454212        -1.654748
 H        -4.836800         2.533042         0.299324
 H        -4.994766         0.121287        -1.756607
 H        -6.419882         0.857714        -0.801756
