19
Iteration:  4207charge 0 multiplicity 1
 C         0.770342         0.067958        -1.021300
 C        -0.533338         0.000516        -0.349648
 C        -1.608189        -0.105007         0.310195
 C        -2.947940         0.265921         0.896482
 O        -2.676891         0.235824         2.271617
 C        -3.537333         1.579772         0.349143
 C        -4.602134         1.320823        -0.836046
 C        -4.094009         0.869695        -2.108720
 O        -4.712043         2.146228        -1.963638
 H         0.669874         0.197898        -2.132406
 H         1.394135         0.765351        -0.549306
 H         1.161097        -0.878280        -0.848020
 H        -3.691895        -0.529908         0.706575
 H        -2.051527        -0.584191         2.355231
 H        -4.168145         2.082348         1.156110
 H        -3.012898         2.528659         0.100383
 H        -5.590324         0.974500        -0.439421
 H        -3.089010         0.880916        -2.348385
 H        -4.744703         0.051103        -2.537595
