19
Iteration:  1348
 C         0.837460        -0.135351        -1.063456
 C        -0.321399        -0.057173        -0.237806
 C        -1.422979         0.034355         0.337850
 C        -2.779697         0.127932         0.788041
 O        -2.977276         0.063652         2.202579
 C        -3.502341         1.398557         0.267483
 C        -4.426034         1.099684        -0.963329
 C        -4.031261         1.668527        -2.251852
 O        -5.199441         2.129227        -1.472561
 H         0.810093        -0.971033        -1.890740
 H         0.983355         0.786092        -1.748791
 H         1.767969        -0.407579        -0.443182
 H        -3.406841        -0.638561         0.292144
 H        -2.052889         0.142065         2.527800
 H        -4.116560         2.012118         0.957910
 H        -2.809680         2.117218        -0.127490
 H        -5.028324         0.169096        -1.034633
 H        -3.230845         2.364892        -2.242134
 H        -4.335028         1.286144        -3.199274
