19
Iteration:  1570charge 0 multiplicity 1
 C         0.165246        -0.006659        -1.636590
 C        -0.671407        -0.082456        -0.479069
 C        -1.601089         0.088168         0.373441
 C        -2.935551         0.063845         1.148854
 O        -2.856289         0.464588         2.493632
 C        -3.916849         0.952265         0.375672
 C        -3.983170         0.886697        -1.091084
 C        -3.347414         1.884685        -1.848803
 O        -4.708055         1.973322        -1.749671
 H        -0.544773         0.328935        -2.477952
 H         1.100944         0.642377        -1.667344
 H         0.533775        -1.000857        -1.998925
 H        -3.175681        -1.034906         1.187319
 H        -2.889381         1.464938         2.550669
 H        -4.844371         0.647995         0.769689
 H        -3.621549         1.992263         0.638307
 H        -4.232323        -0.042246        -1.588159
 H        -2.779843         2.599597        -1.267420
 H        -3.012217         1.543341        -2.864678
