19
Iteration:  2822charge 0 multiplicity 1
 C         0.330352         0.225849        -1.640383
 C        -0.746627         0.218651        -0.534689
 C        -1.610366         0.139007         0.296514
 C        -2.932750        -0.044165         1.090027
 O        -2.862860         0.207067         2.560909
 C        -3.987022         0.837951         0.412922
 C        -3.992916         0.853931        -1.105628
 C        -3.322867         1.977026        -1.899880
 O        -4.715201         1.996113        -1.663769
 H         0.017652         0.670698        -2.563337
 H         1.185254         0.844759        -1.410673
 H         0.686993        -0.800667        -1.665774
 H        -3.194275        -1.041811         0.859597
 H        -3.136126        -0.642165         2.946590
 H        -5.024256         0.374466         0.696702
 H        -4.080108         1.985934         0.588937
 H        -4.338150        -0.045886        -1.611827
 H        -2.644328         2.678953        -1.371423
 H        -3.054447         1.818037        -2.955039
