19
Iteration:  2896charge 0 multiplicity 1
 C        -0.061952         0.409457        -1.754708
 C        -0.841701         0.306674        -0.427751
 C        -1.716237         0.078260         0.376493
 C        -2.991626        -0.044969         1.209237
 O        -2.754337         0.027565         2.621900
 C        -4.016743         0.892266         0.410813
 C        -3.936722         0.859754        -1.120555
 C        -3.120689         1.790500        -1.910921
 O        -4.480265         2.005525        -1.850761
 H        -0.692003         1.213656        -2.292910
 H         1.000037         0.751255        -1.657327
 H         0.157281        -0.592756        -2.229293
 H        -3.258985        -1.141431         0.978835
 H        -2.841676         0.926896         3.110118
 H        -5.020354         0.596693         0.492809
 H        -3.985381         1.892321         0.886921
 H        -4.132360        -0.167717        -1.539764
 H        -2.556997         2.505579        -1.344787
 H        -2.657052         1.560439        -2.841748
