19
Iteration:   199charge 0 multiplicity 1
 C         1.427628        -0.088061         0.528488
 C         0.030213        -0.073718        -0.011402
 C        -1.141383        -0.134874        -0.340460
 C        -2.570889         0.126675        -0.433147
 O        -3.156440        -0.492520         0.816081
 C        -2.987595         1.587452        -0.549836
 C        -4.507685         1.835133        -0.252122
 C        -5.518448         1.097572        -1.010916
 O        -5.314565         2.563535        -1.231997
 H         1.790616        -1.116043         0.578771
 H         2.098882         0.541789        -0.024246
 H         1.438817         0.213693         1.580625
 H        -2.880128        -0.386274        -1.346168
 H        -2.364501        -0.842717         1.239113
 H        -2.407628         2.311396        -0.006870
 H        -2.741469         1.934359        -1.495815
 H        -4.611568         2.187024         0.715947
 H        -5.103769         0.608195        -1.838152
 H        -6.472049         0.797545        -0.677449
