19
Iteration:  2713charge 0 multiplicity 1
 C         0.954302         0.005628        -0.717414
 C        -0.501859        -0.019489        -0.510762
 C        -1.655125         0.040625         0.022058
 C        -2.870209        -0.032469         0.743924
 O        -2.516909         0.059287         2.194578
 C        -3.792497         1.110290         0.395175
 C        -4.328308         1.076739        -1.053494
 C        -3.975655         2.009455        -2.186078
 O        -5.286027         2.061893        -1.492430
 H         1.288508         0.003219        -1.753398
 H         1.385184         0.770128        -0.081080
 H         1.460848        -0.879158        -0.241760
 H        -3.432085        -0.976339         0.528913
 H        -1.655722         0.466735         2.299652
 H        -4.748364         1.034445         0.998770
 H        -3.446090         2.113927         0.569168
 H        -4.569593         0.079852        -1.387810
 H        -3.403227         2.885047        -1.906403
 H        -3.998098         1.854270        -3.305191
