19
Iteration:  4566
 C         0.715121        -0.607313        -1.133285
 C        -0.477679        -0.235442        -0.355502
 C        -1.465711        -0.020987         0.314191
 C        -2.916791         0.260452         1.018617
 O        -2.732972         0.761574         2.366087
 C        -3.795964         1.336038         0.399229
 C        -4.038910         1.069341        -1.129921
 C        -3.955646         2.190569        -2.190165
 O        -5.232542         1.584927        -1.776875
 H         1.186051         0.209438        -1.701820
 H         1.471908        -1.075246        -0.571994
 H         0.446880        -1.295543        -1.911706
 H        -3.338691        -0.762638         1.078381
 H        -2.086421         0.173446         2.664983
 H        -4.725391         1.275340         0.994209
 H        -3.272206         2.286339         0.772488
 H        -3.648364         0.104345        -1.386733
 H        -3.789876         3.322771        -1.971514
 H        -3.567467         1.898093        -3.190536
