19
Iteration:  4454
 C         0.408277        -0.375452        -1.427865
 C        -0.781762        -0.138108        -0.391462
 C        -1.692190         0.001684         0.460366
 C        -2.978936         0.274244         1.125337
 O        -2.661029         0.639544         2.464651
 C        -3.831065         1.352885         0.420265
 C        -3.885136         1.108199        -1.094128
 C        -3.605125         1.974009        -2.150006
 O        -4.983523         1.478640        -1.835671
 H         0.468627         0.495169        -2.025059
 H         1.361523        -0.421835        -0.844642
 H         0.241449        -1.264994        -1.994353
 H        -3.562283        -0.675466         1.269738
 H        -1.666138         0.873314         2.437070
 H        -4.810338         1.391705         0.869112
 H        -3.174499         2.286481         0.632821
 H        -3.505613         0.058086        -1.277932
 H        -3.525522         3.081928        -2.092272
 H        -3.117359         1.495667        -3.060463
