19
Iteration:  3316
 C         1.443048         0.047370        -0.253575
 C        -0.042201         0.066861        -0.013231
 C        -1.200365        -0.072900         0.361059
 C        -2.602950        -0.025250         0.254315
 O        -3.200786        -0.233891         1.503722
 C        -3.069338         1.330392        -0.341228
 C        -4.626119         1.437013        -0.578184
 C        -5.323482         1.229044        -1.861963
 O        -5.054250         2.556410        -1.410771
 H         1.986837         0.072152         0.668532
 H         1.589879        -1.006259        -0.710672
 H         1.695351         0.656780        -1.149731
 H        -2.951109        -0.946502        -0.275309
 H        -3.473071         0.640453         1.812810
 H        -2.633051         2.144294         0.390376
 H        -2.675672         1.491331        -1.392538
 H        -5.254035         1.310753         0.344236
 H        -4.755762         0.790637        -2.767380
 H        -6.384194         1.126578        -1.941536
