19
Iteration:  3303
 C         1.413474        -0.029417        -0.336485
 C         0.026562         0.126174        -0.090381
 C        -1.151233         0.027891         0.351318
 C        -2.689944        -0.056174         0.285524
 O        -3.293492        -0.221376         1.613915
 C        -3.155076         1.229104        -0.370846
 C        -4.580708         1.444625        -0.568036
 C        -5.203168         1.229928        -1.931215
 O        -5.044169         2.567278        -1.357338
 H         1.949925         0.303603         0.517103
 H         1.760666        -1.011538        -0.592653
 H         1.809337         0.756374        -1.010641
 H        -2.968090        -0.880231        -0.418646
 H        -3.744541         0.608647         1.919610
 H        -2.817658         2.088614         0.379042
 H        -2.470425         1.430435        -1.263385
 H        -5.315850         1.177211         0.251540
 H        -4.590489         1.191791        -2.843684
 H        -6.125135         0.725540        -1.848095
