19
Iteration:  1075
 C         1.507574        -0.144068        -0.281346
 C         0.096536        -0.147113         0.171045
 C        -1.116518         0.077008         0.293176
 C        -2.633909         0.101298         0.096417
 O        -3.349979        -0.279497         1.292462
 C        -3.020611         1.530022        -0.372048
 C        -4.521645         1.665030        -0.542723
 C        -5.373030         1.072425        -1.603778
 O        -5.242639         2.514100        -1.410630
 H         2.058592        -0.561363         0.502366
 H         1.572646        -0.684181        -1.197134
 H         1.903115         0.835521        -0.413822
 H        -2.872677        -0.539878        -0.715397
 H        -2.838162         0.016812         2.092543
 H        -2.801678         2.337115         0.338813
 H        -2.595621         1.830601        -1.305975
 H        -4.872973         1.465887         0.533944
 H        -4.996798         0.633614        -2.521671
 H        -6.340167         0.648664        -1.290064
