19
Iteration:  2000
 C         1.109873         0.209801        -0.744662
 C        -0.185013        -0.078669        -0.159042
 C        -1.315172        -0.190578         0.393895
 C        -2.700890         0.037427         0.613416
 O        -3.146269         0.063128         2.057289
 C        -3.127876         1.299108        -0.111911
 C        -4.571559         1.235526        -0.741811
 C        -4.815835         1.227059        -2.226993
 O        -5.012927         2.375365        -1.477496
 H         1.834359         0.612124        -0.022844
 H         1.613708        -0.602057        -1.277661
 H         0.899192         1.018625        -1.467000
 H        -3.139497        -0.810646         0.091888
 H        -2.842244         0.925138         2.378437
 H        -3.099846         2.210196         0.578237
 H        -2.384295         1.542317        -0.898465
 H        -5.392002         0.925288        -0.107624
 H        -3.937289         1.132277        -2.874515
 H        -5.722978         0.737426        -2.663546
