19
Iteration:  4038charge 0 multiplicity 1
 C         1.220099        -0.342350        -0.557741
 C        -0.199529        -0.134724        -0.298369
 C        -1.284166         0.166082         0.085616
 C        -2.688978         0.303648         0.637594
 O        -2.850086         0.328523         2.202824
 C        -3.497511         1.548540         0.005130
 C        -4.715490         1.199522        -0.775399
 C        -4.511995         1.167195        -2.213073
 O        -5.301652         2.171898        -1.625973
 H         1.485546        -0.826047        -1.484409
 H         1.855226         0.588145        -0.436719
 H         1.571945        -1.071177         0.272851
 H        -3.257943        -0.495150         0.161008
 H        -2.452226        -0.608065         2.261997
 H        -3.707157         2.140695         0.941574
 H        -2.852851         2.304271        -0.645403
 H        -5.435225         0.762604        -0.169558
 H        -3.566049         1.527658        -2.639782
 H        -5.083334         0.380012        -2.820022
