19
Iteration:  4355
 C         0.536949        -0.290931        -1.294164
 C        -0.677981         0.028404        -0.480195
 C        -1.665290         0.066073         0.252309
 C        -2.975902         0.230713         1.062637
 O        -2.646125         0.698387         2.490188
 C        -3.876159         1.151659         0.418961
 C        -4.385473         0.818071        -1.082655
 C        -3.529285         1.446045        -2.183218
 O        -4.783227         2.074238        -1.701063
 H         0.487793         0.344579        -2.128626
 H         1.404412         0.040003        -0.652163
 H         0.578457        -1.349193        -1.588585
 H        -3.428769        -0.752826         1.329849
 H        -1.826992         1.224517         2.394280
 H        -4.790593         1.303352         1.004673
 H        -3.346956         2.145830         0.231773
 H        -5.101460        -0.068768        -1.139165
 H        -2.625141         1.916302        -1.839723
 H        -3.587793         1.034480        -3.275247
