19
Iteration:  3442charge 0 multiplicity 1
 C         1.489288        -0.164328         0.504190
 C        -0.021180        -0.068430         0.143081
 C        -1.170501        -0.024000        -0.142687
 C        -2.624422         0.112344        -0.273971
 O        -2.887927        -0.110369         1.124190
 C        -3.088357         1.535462        -0.791674
 C        -4.503031         1.850723        -0.422144
 C        -5.561315         0.956592        -1.141854
 O        -5.288246         2.294300        -1.470465
 H         1.518622        -0.739295         1.535747
 H         1.981153        -0.674167        -0.316017
 H         1.888378         0.890434         0.604306
 H        -3.245951        -0.646904        -0.718342
 H        -3.754418         0.185808         1.304682
 H        -2.510416         2.274351        -0.361766
 H        -2.824184         1.609919        -1.822970
 H        -4.758026         2.375030         0.521173
 H        -5.176271         0.111197        -1.814368
 H        -6.533086         0.879327        -0.648831
