19
Iteration:   610
 C         1.346486        -0.095287        -0.619282
 C         0.047517        -0.067521         0.120809
 C        -1.178485         0.022968         0.298088
 C        -2.677096         0.026657         0.396074
 O        -3.051259        -0.343522         1.790399
 C        -3.270036         1.447005        -0.115846
 C        -4.712711         1.345100        -0.729374
 C        -5.015430         1.430717        -2.213498
 O        -5.230358         2.640606        -1.262643
 H         1.140629         0.574282        -1.450453
 H         2.123277         0.355489        -0.006921
 H         1.723190        -1.084638        -0.860494
 H        -3.051774        -0.669446        -0.380986
 H        -2.347237        -1.047846         1.951454
 H        -3.193040         2.155113         0.687144
 H        -2.768219         1.877368        -0.997106
 H        -5.622594         0.894547        -0.175989
 H        -4.108770         1.457701        -2.845285
 H        -5.871425         1.014240        -2.717839
