19
Iteration:  2389
 C         1.490540         0.160290         0.316958
 C         0.057491        -0.101978         0.108026
 C        -1.153352        -0.066752        -0.044123
 C        -2.627911        -0.043770        -0.222258
 O        -3.254046        -0.316030         1.050999
 C        -2.975211         1.322154        -0.744553
 C        -4.432677         1.849275        -0.422012
 C        -5.621615         1.082690        -1.032895
 O        -5.192544         2.439487        -1.472229
 H         2.053015        -0.748162         0.481830
 H         1.800500         0.898237        -0.429622
 H         1.479462         0.680509         1.270666
 H        -2.911573        -0.883626        -0.964721
 H        -2.706016         0.133599         1.713261
 H        -2.339478         2.056659        -0.146759
 H        -2.732432         1.543189        -1.864548
 H        -4.469864         2.319352         0.562711
 H        -5.358648         0.243525        -1.678922
 H        -6.519933         0.940073        -0.473841
