19
Iteration:  2738charge 0 multiplicity 1
 C         0.839070         0.112332        -0.856550
 C        -0.587938        -0.091144        -0.499020
 C        -1.680934        -0.072502        -0.017286
 C        -2.880031        -0.030068         0.752453
 O        -2.563494         0.139675         2.176255
 C        -3.872745         1.102971         0.434593
 C        -4.217693         1.005266        -1.000791
 C        -3.815882         2.034988        -1.999400
 O        -5.163940         2.006067        -1.547938
 H         0.958337         0.221328        -1.946737
 H         1.196485         0.975061        -0.242146
 H         1.573653        -0.695048        -0.665178
 H        -3.444835        -1.016778         0.607135
 H        -2.613334         1.087534         2.445457
 H        -4.709528         1.106897         1.059967
 H        -3.458627         2.037156         0.472683
 H        -4.303258         0.041555        -1.459207
 H        -3.261905         2.996468        -1.753999
 H        -3.696389         1.744483        -3.062107
