19
Iteration:   880charge 0 multiplicity 1
 C         1.420138         0.026374         0.495838
 C         0.070253        -0.049674        -0.136470
 C        -1.135168        -0.194866        -0.297171
 C        -2.557304        -0.065284        -0.239854
 O        -3.135126        -0.115700         1.091740
 C        -3.023008         1.273900        -0.768794
 C        -4.454616         1.608270        -0.315911
 C        -5.614127         1.233853        -1.276851
 O        -5.251772         2.628144        -1.160592
 H         1.421615         0.997623         1.083700
 H         1.388326        -0.811031         1.247156
 H         2.325106         0.073381        -0.169051
 H        -3.177661        -0.963759        -0.657907
 H        -2.422391        -0.374088         1.709871
 H        -2.308963         2.024262        -0.290562
 H        -2.784460         1.273923        -1.860377
 H        -4.693304         1.606582         0.776005
 H        -5.526840         0.713648        -2.308670
 H        -6.503368         0.869321        -0.715083
