19
Iteration:  3979charge 0 multiplicity 1
 C         1.267129        -0.440358        -0.322654
 C        -0.119972        -0.032303        -0.017378
 C        -1.312618         0.089658        -0.183754
 C        -2.719938         0.320686         0.540662
 O        -2.696451         0.389516         1.950381
 C        -3.478519         1.527241         0.052569
 C        -4.590637         1.138886        -0.825334
 C        -4.732262         1.236333        -2.319240
 O        -5.400912         2.196329        -1.442158
 H         1.171137        -1.182581        -1.198528
 H         1.935163         0.404185        -0.465879
 H         1.519224        -1.008458         0.638849
 H        -3.313607        -0.613478         0.281734
 H        -2.133427        -0.277848         2.404950
 H        -3.897812         1.983304         0.951655
 H        -2.873001         2.143117        -0.458320
 H        -5.344199         0.502947        -0.350841
 H        -3.854146         1.573576        -2.906175
 H        -5.404325         0.629739        -2.856470
