19
Iteration:  3447
 C         1.443989        -0.158562         0.531144
 C         0.049774        -0.098309         0.163628
 C        -1.143926        -0.045100        -0.125946
 C        -2.622094         0.151011        -0.275691
 O        -2.879618        -0.136174         1.107182
 C        -3.097304         1.578561        -0.828568
 C        -4.503907         1.859038        -0.434023
 C        -5.563979         0.973974        -1.112514
 O        -5.317792         2.287238        -1.473427
 H         1.665841        -0.712511         1.379301
 H         1.830581        -0.752208        -0.330744
 H         1.916153         0.794315         0.699613
 H        -3.197906        -0.676451        -0.797977
 H        -3.800798         0.210742         1.365409
 H        -2.383428         2.441388        -0.467084
 H        -2.936906         1.626321        -1.952313
 H        -4.864067         2.328978         0.488337
 H        -5.284964         0.091740        -1.655633
 H        -6.522936         0.693273        -0.641747
