19
Iteration:  4245
 C         0.725647        -0.027559        -1.035180
 C        -0.695196         0.006869        -0.419545
 C        -1.786241         0.223871         0.033210
 C        -2.985023         0.233231         0.920394
 O        -2.689071         0.330797         2.328133
 C        -3.660499         1.482437         0.409870
 C        -4.478433         1.174031        -0.771668
 C        -3.937600         0.866861        -2.132162
 O        -4.589204         2.133915        -1.841234
 H         0.783908         0.288524        -2.059554
 H         1.467801         0.628044        -0.461767
 H         1.141781        -1.092092        -0.929813
 H        -3.620039        -0.658272         0.743902
 H        -1.740238         0.087492         2.372953
 H        -4.254284         1.735600         1.313272
 H        -2.762164         2.105721         0.327149
 H        -5.434591         0.605724        -0.586512
 H        -2.856433         0.828051        -2.532015
 H        -4.450940         0.123390        -2.762007
