19
Iteration:  3047
 C         0.939377        -0.050704        -0.817142
 C        -0.459236         0.154186        -0.455541
 C        -1.514912         0.219423         0.087199
 C        -2.854659         0.032474         0.736085
 O        -2.675479         0.044852         2.170619
 C        -3.814771         1.156051         0.317190
 C        -4.476601         1.002590        -1.003009
 C        -3.870680         1.629617        -2.127479
 O        -5.120161         2.162830        -1.494066
 H         1.493226         0.920286        -0.789969
 H         1.300901        -0.714900        -0.051611
 H         0.880099        -0.434651        -1.819497
 H        -3.329561        -0.903369         0.443955
 H        -3.332660         0.732597         2.510470
 H        -4.570293         1.248524         1.183776
 H        -3.199089         2.061543         0.335293
 H        -4.847914        -0.002143        -1.218714
 H        -3.007519         2.275631        -1.828636
 H        -4.026152         1.357289        -3.160966
