19
Iteration:  3110charge 0 multiplicity 1
 C         1.097415        -0.206428        -0.491782
 C        -0.233253         0.040185        -0.188050
 C        -1.416214         0.253144         0.042565
 C        -2.783200         0.151585         0.583289
 O        -2.550785        -0.095801         2.001146
 C        -3.758542         1.305200         0.377022
 C        -4.646012         1.136064        -0.884914
 C        -4.317702         1.636388        -2.325602
 O        -5.362448         2.269591        -1.585538
 H         1.804878         0.590458        -0.338053
 H         1.578368        -1.176736        -0.185759
 H         1.280385        -0.379213        -1.545516
 H        -3.095982        -0.842227         0.176012
 H        -1.538594        -0.120912         2.111360
 H        -4.383200         1.406995         1.322662
 H        -3.249900         2.257369         0.288031
 H        -5.182109         0.166002        -0.891300
 H        -3.258774         2.120328        -2.423127
 H        -4.655624         1.001168        -3.239354
