19
Iteration:    98
 C         1.545709         0.026018         0.281793
 C         0.146278        -0.313258         0.134134
 C        -1.038900        -0.052902        -0.027922
 C        -2.538821         0.090521        -0.296041
 O        -3.212583        -0.693436         0.779878
 C        -3.046627         1.511619        -0.582835
 C        -4.527803         1.694867        -0.349181
 C        -5.685047         1.379547        -1.182310
 O        -5.289753         2.690380        -1.184568
 H         2.134974        -0.834605         0.601762
 H         2.033207         0.337524        -0.660516
 H         1.588142         0.873896         0.982673
 H        -2.719683        -0.522252        -1.179992
 H        -2.958583        -0.151621         1.547476
 H        -2.703498         2.086089         0.307700
 H        -2.787698         2.000645        -1.561861
 H        -4.675819         1.859539         0.692589
 H        -5.590580         0.908586        -2.229495
 H        -6.540983         1.030991        -0.513204
