19
Iteration:   335
 C         1.565832        -0.158195         0.030176
 C         0.070473        -0.123283         0.094268
 C        -1.134947        -0.040362         0.074654
 C        -2.516753         0.204163        -0.218693
 O        -3.280027        -0.198020         1.038740
 C        -3.042297         1.617745        -0.319277
 C        -4.590348         1.558341        -0.398098
 C        -5.516814         1.079678        -1.442695
 O        -5.220613         2.496708        -1.239342
 H         1.921191        -0.797385        -0.789715
 H         1.946235         0.889036        -0.046208
 H         2.010089        -0.697699         0.878625
 H        -2.972838        -0.343064        -1.102492
 H        -2.904618        -1.074946         1.336785
 H        -2.600877         2.304407         0.427345
 H        -2.766713         2.025886        -1.353300
 H        -5.029065         1.482113         0.730265
 H        -5.082967         0.587003        -2.357585
 H        -6.533806         0.786996        -1.101704
