19
Iteration:  2800charge 0 multiplicity 1
 C         0.388989         0.178554        -1.370962
 C        -0.716567         0.146917        -0.492621
 C        -1.644335         0.038338         0.324713
 C        -2.863259        -0.116054         1.018980
 O        -2.641148         0.217913         2.401081
 C        -4.006891         0.865176         0.395202
 C        -4.051374         0.979477        -1.106798
 C        -3.421714         1.992930        -1.967486
 O        -4.891089         2.039773        -1.689802
 H        -0.010477         0.625409        -2.268578
 H         1.098640         0.959725        -1.093325
 H         0.913598        -0.774612        -1.439182
 H        -3.127489        -1.153392         0.951498
 H        -3.401805        -0.337206         2.717283
 H        -5.064409         0.510653         0.738605
 H        -3.816998         1.939165         0.840354
 H        -4.181293        -0.004405        -1.571896
 H        -2.860162         2.823872        -1.541155
 H        -3.227753         1.852515        -3.040076
