19
Iteration:  1740
 C         0.609385         0.017787        -1.179615
 C        -0.591469        -0.000005        -0.349533
 C        -1.605753        -0.210147         0.269532
 C        -2.920143         0.013169         1.019437
 O        -2.708462         0.520637         2.298448
 C        -3.835439         1.044831         0.313730
 C        -4.269041         0.883595        -1.116189
 C        -3.664291         1.761878        -2.167715
 O        -4.949365         2.173921        -1.550107
 H         0.855393         0.969900        -1.653726
 H         1.522594        -0.488799        -0.818846
 H         0.400961        -0.620741        -2.081122
 H        -3.488428        -0.952201         1.038356
 H        -1.831732         0.188437         2.608388
 H        -4.756499         1.178143         0.923084
 H        -3.289825         1.952312         0.374273
 H        -4.952149         0.057694        -1.372165
 H        -2.958327         2.522396        -1.955566
 H        -3.644171         1.542552        -3.221813
