19
Iteration:  2155charge 0 multiplicity 1
 C         1.543808        -0.243543         0.290575
 C         0.078429        -0.096695         0.124633
 C        -1.082762        -0.015055        -0.058688
 C        -2.575636         0.190723        -0.200939
 O        -3.053483        -0.025481         1.191462
 C        -3.074416         1.604888        -0.535469
 C        -4.583409         1.656264        -0.473276
 C        -5.537732         0.891986        -1.269386
 O        -5.423392         2.389927        -1.552680
 H         1.860803        -0.547061         1.245107
 H         1.992435        -0.737046        -0.522267
 H         1.987987         0.734537         0.345137
 H        -2.960785        -0.651234        -0.865654
 H        -2.347710         0.301035         1.797946
 H        -2.578733         2.410889         0.105469
 H        -2.892246         1.828331        -1.577074
 H        -4.891723         1.921454         0.563100
 H        -5.349060         0.045004        -1.939878
 H        -6.414807         0.594317        -0.660970
