19
Iteration:  2734
 C         0.854753         0.095111        -0.832818
 C        -0.583390        -0.095236        -0.516152
 C        -1.650926        -0.040512        -0.010821
 C        -2.882352        -0.058451         0.775732
 O        -2.560450         0.129169         2.155736
 C        -3.894276         1.111410         0.398435
 C        -4.209493         1.041119        -1.020548
 C        -3.834019         2.038827        -2.001262
 O        -5.190219         2.004054        -1.534334
 H         0.880565         0.295069        -1.901050
 H         1.238364         0.912059        -0.239815
 H         1.530802        -0.709111        -0.462758
 H        -3.372076        -1.018601         0.617623
 H        -2.474263         1.069592         2.394911
 H        -4.741788         1.111146         1.194615
 H        -3.267567         2.096798         0.546124
 H        -4.376662         0.036452        -1.451520
 H        -3.251245         2.928553        -1.843530
 H        -3.752722         1.612875        -3.033586
