19
Iteration:  2994charge 0 multiplicity 1
 C         0.548366         0.282827        -1.173174
 C        -0.581682         0.034204        -0.319102
 C        -1.671663        -0.061497         0.284614
 C        -2.924990        -0.040202         0.930134
 O        -2.648756         0.178407         2.306874
 C        -3.903242         1.073435         0.413263
 C        -4.228374         1.038674        -1.030571
 C        -3.627688         1.793079        -2.206761
 O        -4.900330         2.060751        -1.678144
 H         0.458573         1.413919        -1.348663
 H         1.467839        -0.090555        -0.678462
 H         0.507520        -0.244201        -2.207397
 H        -3.528858        -0.966886         0.799946
 H        -2.183139        -0.662359         2.607590
 H        -4.713585         1.031015         1.074306
 H        -3.420382         2.008794         0.670237
 H        -4.679863         0.059197        -1.357784
 H        -2.867925         2.551696        -2.033113
 H        -3.567649         1.215999        -3.083129
