19
Iteration:  4356charge 0 multiplicity 1
 C         0.527316        -0.292961        -1.289037
 C        -0.678524         0.030021        -0.481514
 C        -1.665655         0.059395         0.247142
 C        -2.971402         0.216391         1.055482
 O        -2.651215         0.702751         2.492545
 C        -3.871463         1.157289         0.421339
 C        -4.383746         0.822416        -1.082923
 C        -3.526324         1.453945        -2.177791
 O        -4.790091         2.069345        -1.706582
 H         0.496741         0.369623        -2.159971
 H         1.419317         0.037222        -0.654378
 H         0.573033        -1.350845        -1.586088
 H        -3.404555        -0.750655         1.350081
 H        -1.812510         1.263739         2.438763
 H        -4.782399         1.274555         0.991661
 H        -3.329665         2.140423         0.223770
 H        -5.050749        -0.045301        -1.090485
 H        -2.628165         1.930958        -1.848630
 H        -3.568209         1.019103        -3.265791
