19
Iteration:  2884
 C        -0.111447         0.400668        -1.731990
 C        -0.790328         0.288154        -0.432505
 C        -1.630810         0.126622         0.381250
 C        -2.900531         0.002468         1.112801
 O        -2.875933         0.024459         2.598994
 C        -4.046932         0.880654         0.390850
 C        -3.961558         0.857215        -1.102970
 C        -3.046624         1.792359        -1.777176
 O        -4.511124         1.982830        -1.845305
 H        -0.664951         0.939417        -2.615981
 H         0.895555         0.901486        -1.656274
 H        -0.108378        -0.624608        -2.206053
 H        -3.362198        -1.039723         1.073328
 H        -2.395888         0.848405         2.781518
 H        -4.884022         0.444012         0.821444
 H        -3.993472         1.929695         0.663587
 H        -4.171297        -0.118011        -1.635733
 H        -2.518720         2.601236        -1.327455
 H        -2.716842         1.402914        -2.745529
