19
Iteration:  1118
 C         1.482850        -0.146468        -0.194984
 C        -0.023786        -0.082111        -0.209198
 C        -1.216373        -0.046286         0.043039
 C        -2.693555         0.177700         0.203048
 O        -3.177297        -0.235541         1.543185
 C        -3.242056         1.603606        -0.182648
 C        -4.711163         1.540031        -0.468891
 C        -5.145676         1.056232        -1.773449
 O        -5.061409         2.496008        -1.457952
 H         1.783884        -0.861592         0.543636
 H         1.933668        -0.438150        -1.144182
 H         1.860864         0.807634         0.146261
 H        -3.163867        -0.595091        -0.501290
 H        -2.584137         0.204868         2.182867
 H        -2.857466         2.254711         0.646300
 H        -2.559804         1.779114        -1.013296
 H        -5.401621         1.646306         0.417917
 H        -4.442568         0.735606        -2.504321
 H        -6.153549         0.657248        -1.881913
