19
Iteration:  4695charge 0 multiplicity 1
 C         0.978390        -0.504171        -0.658299
 C        -0.420128        -0.339377        -0.174390
 C        -1.494125         0.013584         0.115841
 C        -2.753440         0.236014         0.745547
 O        -2.599171         0.595073         2.107428
 C        -3.725984         1.312286         0.178765
 C        -4.407839         1.006614        -1.098144
 C        -4.155787         1.815186        -2.382883
 O        -5.323182         2.154646        -1.403121
 H         1.412167         0.499422        -0.721134
 H         1.565174        -1.127638         0.122505
 H         0.929101        -1.035826        -1.626307
 H        -3.319721        -0.722093         0.645968
 H        -1.998937        -0.010908         2.713560
 H        -4.349056         1.370314         1.012929
 H        -3.138011         2.251393         0.044359
 H        -4.722147        -0.058794        -1.208146
 H        -3.318218         2.536534        -2.347603
 H        -4.552691         1.425809        -3.343090
