19
Iteration:  4894charge 0 multiplicity 1
 C         0.855543        -0.205294        -0.956122
 C        -0.370238        -0.073847        -0.237397
 C        -1.529407         0.099947         0.077294
 C        -2.917635         0.150178         0.788127
 O        -2.773096         0.241045         2.202836
 C        -3.768758         1.444801         0.478764
 C        -4.667062         1.465232        -0.786106
 C        -4.330551         0.962552        -2.121878
 O        -4.424789         2.320119        -1.889674
 H         1.558017         0.646707        -0.621401
 H         1.283071        -1.157280        -0.660753
 H         0.673704        -0.128557        -2.048112
 H        -3.496710        -0.633593         0.249472
 H        -2.299713        -0.534584         2.375810
 H        -4.270631         1.552569         1.387850
 H        -3.148860         2.385191         0.430045
 H        -5.747662         1.373819        -0.588609
 H        -3.445072         0.515151        -2.492832
 H        -5.170750         0.486043        -2.681276
