19
Iteration:  3321charge 0 multiplicity 1
 C         1.412895         0.047608        -0.245694
 C        -0.012737         0.042028         0.034016
 C        -1.202696        -0.105292         0.328670
 C        -2.588753        -0.032512         0.235716
 O        -3.186899        -0.240282         1.490481
 C        -3.072967         1.389023        -0.363876
 C        -4.606520         1.425847        -0.534953
 C        -5.384106         1.210083        -1.877535
 O        -5.045403         2.568991        -1.419926
 H         1.996668         0.094794         0.735344
 H         1.597190        -0.938438        -0.672519
 H         1.688683         0.729703        -1.049365
 H        -2.872739        -0.886882        -0.398171
 H        -3.328445         0.671862         1.890820
 H        -2.772495         2.203346         0.201440
 H        -2.561918         1.466108        -1.297636
 H        -5.277229         1.452448         0.301802
 H        -4.765284         0.706787        -2.582044
 H        -6.521218         1.108187        -1.904426
