19
Iteration:  4202
 C         0.761661         0.064401        -1.019366
 C        -0.538037        -0.017356        -0.319908
 C        -1.558755        -0.071111         0.292278
 C        -2.949055         0.216102         0.873197
 O        -2.682761         0.243300         2.259668
 C        -3.535810         1.570326         0.331767
 C        -4.604313         1.343787        -0.789953
 C        -4.129036         0.853699        -2.100998
 O        -4.723703         2.163380        -1.952211
 H         0.597289         0.246179        -2.088569
 H         1.434838         0.889959        -0.544224
 H         1.277075        -0.965443        -0.831222
 H        -3.721808        -0.566230         0.695345
 H        -2.168084        -0.504159         2.502995
 H        -4.184394         2.153740         0.962367
 H        -2.911892         2.408990        -0.089353
 H        -5.594548         1.038627        -0.482380
 H        -2.979810         0.803720        -2.267872
 H        -4.584912         0.066682        -2.706314
