19
Iteration:  3488
 C         1.569149        -0.330455         0.647282
 C         0.122292        -0.141810         0.114271
 C        -0.991929         0.194222        -0.121995
 C        -2.486233         0.142273        -0.334597
 O        -3.135323        -0.013032         0.992919
 C        -2.979881         1.580492        -0.853990
 C        -4.482434         1.852470        -0.550030
 C        -5.685969         0.933883        -0.820099
 O        -5.484649         2.237527        -1.511602
 H         1.521828        -1.124885         1.490266
 H         2.074380        -0.676131        -0.249451
 H         2.005382         0.700706         0.959925
 H        -2.717266        -0.698517        -1.033622
 H        -4.000088        -0.421759         1.009634
 H        -2.366311         2.302773        -0.380795
 H        -2.710693         1.787790        -1.889127
 H        -4.585349         2.344715         0.473853
 H        -5.539208         0.162275        -1.653308
 H        -6.540746         0.855017        -0.160580
