19
Iteration:  3452
 C         1.399694        -0.164849         0.533365
 C         0.085669        -0.118210         0.189340
 C        -1.109780        -0.059324        -0.137528
 C        -2.598838         0.185140        -0.266745
 O        -2.899706        -0.148070         1.109661
 C        -3.064216         1.621675        -0.849976
 C        -4.526159         1.838714        -0.446836
 C        -5.568080         0.975318        -1.047181
 O        -5.363900         2.300426        -1.511704
 H         1.765893        -0.844477         1.433878
 H         1.887154        -0.725007        -0.291905
 H         1.973647         0.786540         0.690267
 H        -2.978258        -0.577198        -0.987568
 H        -3.756184         0.165091         1.370314
 H        -2.385914         2.381883        -0.551741
 H        -3.155442         1.570434        -1.939636
 H        -4.791377         2.251113         0.533751
 H        -5.234682         0.128136        -1.715604
 H        -6.516665         0.675876        -0.558525
