19
Iteration:   192
 C         1.406089        -0.089247         0.545904
 C         0.005659        -0.009820        -0.041211
 C        -1.183842        -0.092095        -0.376424
 C        -2.636324         0.116187        -0.405721
 O        -3.199971        -0.552693         0.825734
 C        -2.935808         1.585497        -0.576976
 C        -4.454370         1.877051        -0.279650
 C        -5.427561         1.045218        -1.015340
 O        -5.304793         2.580010        -1.201496
 H         1.748273        -1.138950         0.521140
 H         2.180468         0.478595        -0.019362
 H         1.411207         0.285731         1.574006
 H        -2.943475        -0.552149        -1.228069
 H        -2.368730        -0.434768         1.365952
 H        -2.313288         2.191017         0.115045
 H        -2.760317         1.850368        -1.671574
 H        -4.676402         2.058615         0.878095
 H        -5.136112         0.538325        -1.949229
 H        -6.359048         0.681417        -0.544030
