19
Iteration:  2629
 C         1.369622        -0.236902        -0.584964
 C        -0.094583        -0.040671        -0.279079
 C        -1.213948         0.211239         0.115428
 C        -2.752263         0.201196         0.570998
 O        -2.858165        -0.131761         2.019761
 C        -3.723895         1.405020         0.241142
 C        -4.629390         1.096107        -0.958644
 C        -4.486262         1.796228        -2.301990
 O        -5.387730         2.183600        -1.312637
 H         1.508917        -0.503680        -1.661732
 H         1.795201         0.807225        -0.497481
 H         1.745986        -1.042338         0.042573
 H        -3.205302        -0.519928        -0.094811
 H        -2.441707        -1.037958         2.105119
 H        -4.295655         1.660374         1.122326
 H        -3.163774         2.305426        -0.097628
 H        -5.166292         0.140908        -0.982624
 H        -3.575866         2.408023        -2.337317
 H        -4.898867         1.357736        -3.261139
