19
Iteration:  4572
 C         0.718386        -0.606961        -1.107518
 C        -0.496841        -0.218510        -0.358804
 C        -1.546508        -0.007410         0.334586
 C        -2.855575         0.260880         0.954382
 O        -2.700856         0.739997         2.363748
 C        -3.769684         1.343920         0.361754
 C        -4.067671         1.107870        -1.101676
 C        -3.963316         2.157235        -2.147946
 O        -5.217189         1.584316        -1.770479
 H         1.212901         0.242679        -1.597906
 H         1.464482        -1.102312        -0.379220
 H         0.374509        -1.362061        -1.870186
 H        -3.346949        -0.731130         0.919280
 H        -1.957741         0.191799         2.818260
 H        -4.729179         1.179483         0.870695
 H        -3.342368         2.308465         0.493899
 H        -3.773906         0.123102        -1.588656
 H        -3.870364         3.197660        -1.973358
 H        -3.564733         1.912178        -3.119845
