19
Iteration:  2661charge 0 multiplicity 1
 C         1.095523        -0.204338        -0.617829
 C        -0.228688         0.036790        -0.167715
 C        -1.351459         0.211368         0.016943
 C        -2.748216         0.040223         0.516289
 O        -2.666594         0.080877         1.935326
 C        -3.712779         1.181691         0.305012
 C        -4.538835         1.053965        -0.942410
 C        -4.291308         1.906507        -2.174986
 O        -5.382397         2.153002        -1.371805
 H         1.059539        -0.238674        -1.708802
 H         1.794654         0.646440        -0.338199
 H         1.563021        -1.008805        -0.024074
 H        -3.148874        -0.908198        -0.000983
 H        -2.805611        -0.778475         2.289992
 H        -4.416486         1.292851         1.054690
 H        -3.212911         2.071642         0.188913
 H        -4.952050         0.084263        -1.137807
 H        -3.440148         2.613150        -2.116972
 H        -4.344052         1.366871        -3.167854
