19
Iteration:  1527charge 0 multiplicity 1
 C         0.336211        -0.054849        -1.448711
 C        -0.789883         0.005446        -0.621848
 C        -1.691698         0.041530         0.281720
 C        -2.881800         0.011069         1.108106
 O        -2.725610         0.629361         2.385124
 C        -4.075939         0.771347         0.409977
 C        -4.125063         0.795158        -1.135076
 C        -3.304450         1.806187        -1.856596
 O        -4.729215         2.169996        -1.598035
 H         0.046973         0.050340        -2.586938
 H         1.071007         0.789685        -1.112900
 H         1.035476        -0.947755        -1.306700
 H        -3.251759        -1.032415         1.140360
 H        -2.130397         1.433260         2.267650
 H        -4.912912         0.195885         0.815648
 H        -4.183720         1.868552         0.670173
 H        -4.384699        -0.117085        -1.677212
 H        -2.504732         2.445551        -1.376896
 H        -3.100782         1.611449        -2.986877
