19
Iteration:  2787charge 0 multiplicity 1
 C         0.467351         0.221295        -1.262190
 C        -0.666517         0.060464        -0.428502
 C        -1.676262         0.000093         0.292076
 C        -2.914958        -0.134576         0.944818
 O        -2.577147         0.206971         2.278697
 C        -3.924497         0.908528         0.441597
 C        -4.123691         0.978547        -1.100088
 C        -3.539597         2.069549        -1.970272
 O        -4.923615         2.011876        -1.705382
 H         0.251064         0.311241        -2.334967
 H         1.171288         0.891984        -0.779232
 H         1.023879        -0.738203        -1.358844
 H        -3.332816        -1.123753         0.805513
 H        -3.211378         0.292447         3.001067
 H        -4.931784         0.579761         0.869318
 H        -3.719677         1.984976         0.900842
 H        -4.475346         0.000863        -1.550956
 H        -2.946944         2.761009        -1.445466
 H        -3.255079         1.876736        -3.010962
