19
Iteration:  3722charge 0 multiplicity 1
 C         1.493970        -0.040982        -0.129762
 C         0.013694        -0.202237        -0.076928
 C        -1.187043        -0.131433         0.088339
 C        -2.685662         0.213443         0.310908
 O        -3.279393         0.132838         1.597673
 C        -3.105328         1.429030        -0.365701
 C        -4.597198         1.532770        -0.587127
 C        -5.500054         1.068754        -1.593507
 O        -4.905306         2.321056        -1.661449
 H         2.150193        -0.900227        -0.340711
 H         1.933680         0.645299        -1.032858
 H         2.058798         0.426627         0.687838
 H        -3.199467        -0.552061        -0.302747
 H        -3.001704        -0.611367         2.240211
 H        -2.873390         2.259510         0.164528
 H        -2.601972         1.524762        -1.351385
 H        -5.085346         1.715818         0.331825
 H        -5.081781         0.508441        -2.490357
 H        -6.528029         0.884239        -1.381492
