19
Iteration:   664
 C         1.385607        -0.177771        -0.200143
 C        -0.097183         0.099193        -0.291950
 C        -1.268626         0.057070        -0.063141
 C        -2.677233         0.111458         0.305123
 O        -3.043196        -0.249240         1.590568
 C        -3.324726         1.479568        -0.100806
 C        -4.731410         1.263610        -0.514320
 C        -4.984438         1.351070        -2.002106
 O        -5.045928         2.541418        -1.221066
 H         2.062699         0.280451        -0.949051
 H         1.728717         0.139795         0.792844
 H         1.521512        -1.246563        -0.438622
 H        -3.091438        -0.690945        -0.402736
 H        -2.542484        -1.088316         1.761672
 H        -3.305612         2.086152         0.864446
 H        -2.942597         2.171111        -0.912741
 H        -5.606826         0.970033         0.138649
 H        -4.152193         1.221955        -2.711285
 H        -5.864183         0.872556        -2.376194
