19
Iteration:  2718
 C         0.921200         0.030948        -0.731905
 C        -0.527506        -0.050347        -0.513850
 C        -1.612520         0.051927         0.012352
 C        -2.905579        -0.050697         0.775181
 O        -2.532433         0.062679         2.170913
 C        -3.799245         1.108201         0.396216
 C        -4.315716         1.096323        -1.050056
 C        -3.933864         2.020327        -2.174316
 O        -5.284733         2.038241        -1.486535
 H         1.387999         0.003669        -1.742542
 H         1.277382         0.907473        -0.125725
 H         1.401094        -0.903397        -0.417099
 H        -3.397552        -1.049499         0.698840
 H        -1.753191         0.702303         2.166632
 H        -4.751302         1.072507         0.889417
 H        -3.315693         2.090374         0.715000
 H        -4.536781         0.046083        -1.369732
 H        -3.297916         2.873273        -1.840001
 H        -3.860554         1.741447        -3.212703
