19
Iteration:  4653charge 0 multiplicity 1
 C         0.954160        -0.592641        -0.681743
 C        -0.445223        -0.242668        -0.325024
 C        -1.553350        -0.092239         0.068998
 C        -2.855247         0.233251         0.842800
 O        -2.512757         0.572293         2.166262
 C        -3.768075         1.445918         0.383089
 C        -4.308187         1.173911        -1.055534
 C        -4.056809         1.977545        -2.247347
 O        -5.387940         1.839190        -1.665836
 H         1.481818         0.365324        -0.869917
 H         1.361951        -1.087343         0.172984
 H         1.055584        -1.188820        -1.575901
 H        -3.436574        -0.691702         0.837011
 H        -1.676908         0.087768         2.270859
 H        -4.654905         1.758021         0.899603
 H        -3.163402         2.401486         0.371282
 H        -4.474895         0.146823        -1.338558
 H        -3.686956         3.019562        -2.114815
 H        -4.000494         1.361179        -3.207150
