19
Iteration:  4588charge 0 multiplicity 1
 C         0.605996        -0.602130        -0.910509
 C        -0.544857        -0.192532        -0.348295
 C        -1.596291         0.071400         0.216705
 C        -2.790989         0.330629         0.960465
 O        -2.609257         0.630517         2.290033
 C        -3.727700         1.354104         0.267778
 C        -4.011662         1.014405        -1.167314
 C        -3.961967         2.139021        -2.124877
 O        -5.298164         1.618988        -1.723673
 H         1.169481         0.231569        -1.358704
 H         1.249654        -1.040473        -0.208677
 H         0.551334        -1.278706        -1.727594
 H        -3.353752        -0.646218         0.930410
 H        -1.735932         0.169041         2.579544
 H        -4.597005         1.320141         0.934137
 H        -3.327533         2.389736         0.511883
 H        -3.809982        -0.016550        -1.324286
 H        -3.652112         3.135224        -1.656056
 H        -3.644910         1.955621        -3.194072
