19
Iteration:  1601charge 0 multiplicity 1
 C         0.054005        -0.031680        -1.607609
 C        -0.799747         0.068613        -0.432051
 C        -1.688023         0.176387         0.488933
 C        -2.952325         0.096338         1.187775
 O        -2.689778         0.206231         2.549982
 C        -3.903628         1.122462         0.409180
 C        -3.861703         0.965401        -1.086446
 C        -3.330588         1.926415        -2.039387
 O        -4.716883         1.819907        -1.868724
 H        -0.606646         0.445183        -2.318536
 H         1.041646         0.404699        -1.631916
 H         0.050065        -1.072787        -1.880302
 H        -3.478245        -0.918326         1.000701
 H        -2.322831         1.029032         2.853222
 H        -4.952144         0.899127         0.737736
 H        -3.804199         2.165488         0.746985
 H        -3.899301        -0.062278        -1.448950
 H        -2.743464         2.721318        -1.677267
 H        -2.968045         1.662585        -3.033993
