19
Iteration:  1114
 C         1.464187        -0.124004        -0.211049
 C         0.005936        -0.106015        -0.198809
 C        -1.167133        -0.061670         0.073207
 C        -2.645443         0.173027         0.203885
 O        -3.216390        -0.242191         1.531007
 C        -3.238377         1.616070        -0.185205
 C        -4.693811         1.589247        -0.474153
 C        -5.181747         1.060374        -1.777080
 O        -5.088028         2.473189        -1.444016
 H         1.747887        -0.936686         0.569106
 H         2.009148        -0.531109        -1.138773
 H         1.887142         0.870680         0.148397
 H        -3.176822        -0.599967        -0.467682
 H        -2.613983         0.181140         2.163075
 H        -2.825939         2.275094         0.616284
 H        -2.630829         1.842898        -1.146748
 H        -5.457369         1.598560         0.310336
 H        -4.377255         0.645106        -2.442390
 H        -6.216099         0.784529        -1.912887
