19
Iteration:  3494
 C         1.564448        -0.358533         0.624645
 C         0.158671        -0.100324         0.102555
 C        -1.067957         0.202135        -0.055473
 C        -2.444313         0.146499        -0.393078
 O        -3.150769         0.023261         0.967883
 C        -2.979966         1.566680        -0.871319
 C        -4.486682         1.823215        -0.505295
 C        -5.665582         0.922270        -0.785627
 O        -5.463690         2.245567        -1.530757
 H         1.459473        -1.051823         1.472951
 H         2.194370        -0.757996        -0.185496
 H         1.901209         0.542321         1.084879
 H        -2.752570        -0.748232        -0.941900
 H        -3.904904        -0.558529         0.878827
 H        -2.409446         2.397095        -0.336066
 H        -2.675427         1.802799        -1.914537
 H        -4.652186         2.337731         0.415374
 H        -5.700954         0.093173        -1.476727
 H        -6.567493         0.818885        -0.152849
