19
Iteration:  4332charge 0 multiplicity 1
 C         0.483932        -0.199808        -1.195081
 C        -0.679085        -0.082571        -0.383435
 C        -1.645029         0.191731         0.284014
 C        -2.866949         0.222398         0.976191
 O        -2.561043         0.626532         2.382144
 C        -4.027906         1.179721         0.364702
 C        -4.441699         0.865591        -1.045886
 C        -3.635321         1.291515        -2.218169
 O        -4.647329         2.181616        -1.675765
 H         0.390750         0.336216        -2.073417
 H         1.381586         0.129968        -0.632166
 H         0.587933        -1.273819        -1.444872
 H        -3.202640        -0.799134         1.219202
 H        -1.633942         1.013498         2.546274
 H        -4.986721         1.063819         0.910495
 H        -3.678765         2.247012         0.323990
 H        -5.229552         0.027062        -1.009129
 H        -2.576555         1.618323        -2.126119
 H        -3.949888         0.690506        -3.120210
