19
Iteration:   576charge 0 multiplicity 1
 C         1.287562        -0.013811        -0.607312
 C        -0.122906        -0.161252        -0.192689
 C        -1.177404         0.024120         0.364612
 C        -2.589417         0.062470         0.398991
 O        -3.297294        -0.187698         1.702103
 C        -3.141323         1.422261        -0.026276
 C        -4.582432         1.203233        -0.778868
 C        -4.911815         1.445953        -2.133573
 O        -5.205370         2.559573        -1.203540
 H         1.318626         0.590085        -1.532926
 H         1.636441         0.662998         0.200685
 H         1.932525        -0.901815        -0.734444
 H        -2.887268        -0.842921        -0.155481
 H        -2.599714        -0.622691         2.254414
 H        -3.135818         1.926196         0.962361
 H        -2.498447         1.976868        -0.770656
 H        -5.132939         0.608245         0.062237
 H        -4.026728         1.607281        -2.759825
 H        -5.719447         0.844728        -2.523813
