19
Iteration:  1105charge 0 multiplicity 1
 C         1.463184        -0.117089        -0.216992
 C         0.060993        -0.155714        -0.168693
 C        -1.111584        -0.062366         0.151262
 C        -2.571179         0.143526         0.231012
 O        -3.278562        -0.239670         1.466171
 C        -3.120016         1.572838        -0.206812
 C        -4.687011         1.653799        -0.427886
 C        -5.253422         1.091282        -1.765708
 O        -5.163710         2.473491        -1.488758
 H         1.776912        -0.819828         0.614323
 H         1.915699        -0.491823        -1.205472
 H         1.939844         0.883103        -0.007702
 H        -3.103919        -0.604054        -0.561761
 H        -2.774199         0.071068         2.241367
 H        -2.971248         2.474835         0.508440
 H        -2.966483         2.071891        -1.227653
 H        -5.351969         1.355838         0.434737
 H        -4.509113         0.612921        -2.401320
 H        -6.249762         0.778791        -1.927647
