19
Iteration:  2366
 C         1.457779         0.076930         0.427538
 C        -0.002213         0.030433         0.278297
 C        -1.105612        -0.215008        -0.208872
 C        -2.572120         0.067696        -0.287845
 O        -3.219126        -0.297261         0.987698
 C        -3.008526         1.482277        -0.865868
 C        -4.415248         1.787932        -0.339644
 C        -5.569092         1.031481        -0.914471
 O        -5.237295         2.408772        -1.492168
 H         1.807951        -0.911447         0.530677
 H         1.734889         0.609543        -0.478811
 H         1.776810         0.645613         1.285050
 H        -3.114077        -0.614458        -1.011896
 H        -2.621580        -0.089501         1.768932
 H        -2.255990         2.374437        -0.764165
 H        -3.185496         1.295944        -2.011822
 H        -4.418928         2.319648         0.593760
 H        -5.503240         0.086639        -1.498089
 H        -6.337693         0.943567        -0.171264
