19
Iteration:  1019
 C         1.509984        -0.192768         0.050070
 C         0.104998         0.110379         0.109807
 C        -1.131541         0.143513         0.127717
 C        -2.542184         0.005102        -0.094810
 O        -3.384820        -0.306744         1.102289
 C        -3.047708         1.350059        -0.661924
 C        -4.491733         1.630120        -0.356846
 C        -5.534686         1.141446        -1.372656
 O        -5.174150         2.541682        -1.290554
 H         1.902442        -0.208526         1.032741
 H         1.692748        -1.192032        -0.319667
 H         2.042922         0.554880        -0.489745
 H        -2.828101        -0.666741        -0.847807
 H        -2.893263         0.105956         1.795022
 H        -2.491683         2.223464        -0.273708
 H        -2.845812         1.405814        -1.767340
 H        -4.512074         1.869020         0.802392
 H        -4.961514         0.522303        -2.090516
 H        -6.574261         0.967126        -1.189072
