19
Iteration:  1885charge 0 multiplicity 1
 C         1.105940        -0.202622        -0.741639
 C        -0.358759         0.061075        -0.377997
 C        -1.461608         0.268984         0.081237
 C        -2.753689         0.223797         0.703632
 O        -2.713201         0.043470         2.122096
 C        -3.755117         1.426038         0.339610
 C        -4.681992         1.209138        -0.807164
 C        -4.148719         1.264567        -2.193308
 O        -5.149621         2.209967        -1.662049
 H         1.790864         0.421810        -0.160454
 H         1.301472        -1.214149        -0.370161
 H         1.529583        -0.146396        -1.724678
 H        -3.267990        -0.740993         0.302597
 H        -2.047134        -0.603526         2.335562
 H        -4.456252         1.579132         1.181466
 H        -3.149529         2.341519         0.360295
 H        -5.442767         0.440564        -0.491373
 H        -3.173486         1.727840        -2.542955
 H        -4.627984         0.729609        -3.031919
