19
Iteration:  4456charge 0 multiplicity 1
 C         0.408949        -0.384608        -1.421204
 C        -0.782082        -0.119531        -0.393323
 C        -1.677860        -0.037246         0.451893
 C        -2.978652         0.288086         1.110822
 O        -2.681775         0.657395         2.476430
 C        -3.815856         1.331869         0.433187
 C        -3.870972         1.106737        -1.075768
 C        -3.621161         1.976138        -2.158235
 O        -4.988075         1.478675        -1.843379
 H         0.519131         0.559696        -2.094690
 H         1.378617        -0.457918        -0.880012
 H         0.236912        -1.300553        -1.985492
 H        -3.516884        -0.684878         1.195543
 H        -1.656560         0.846265         2.355173
 H        -4.837110         1.392115         0.851561
 H        -3.187713         2.319890         0.631047
 H        -3.518201         0.112085        -1.187190
 H        -3.520043         3.123910        -2.066352
 H        -3.123997         1.554684        -3.028179
