19
Iteration:  3573
 C         1.471378        -0.325938         0.459752
 C         0.025196        -0.124431         0.244776
 C        -1.127203         0.070098        -0.006502
 C        -2.518946         0.296619        -0.306894
 O        -3.122516        -0.231120         1.012157
 C        -2.946650         1.711040        -0.888381
 C        -4.418054         1.939680        -0.571757
 C        -5.574709         0.980267        -0.813221
 O        -5.456077         2.138042        -1.588612
 H         1.751530        -1.290313         0.982960
 H         2.069092        -0.272377        -0.372032
 H         1.838864         0.462401         1.107795
 H        -2.967359        -0.459804        -0.966151
 H        -3.045414         0.559952         1.589015
 H        -2.471862         2.479244        -0.320779
 H        -2.733366         1.588362        -1.938726
 H        -4.460809         2.496275         0.382777
 H        -5.283265         0.011762        -1.298006
 H        -6.377431         0.928871        -0.123110
