19
Iteration:  1253charge 0 multiplicity 1
 C         1.159814        -0.202455        -0.653542
 C        -0.191916         0.036153        -0.105095
 C        -1.395882        -0.004000         0.070640
 C        -2.828177         0.109411         0.471913
 O        -2.816727         0.006205         1.973328
 C        -3.453938         1.440146         0.065651
 C        -4.709493         1.248812        -0.729613
 C        -4.503884         1.310849        -2.170554
 O        -5.119802         2.480425        -1.404544
 H         1.414340        -1.222961        -0.826331
 H         1.272238         0.241747        -1.603539
 H         1.902872         0.173869        -0.008625
 H        -3.265436        -0.899748         0.159807
 H        -2.687802        -0.897330         2.396446
 H        -3.628543         2.013890         0.992753
 H        -2.653497         1.982213        -0.516655
 H        -5.516034         0.642022        -0.323008
 H        -3.546303         1.771199        -2.649887
 H        -5.219735         0.747526        -2.833573
