19
Iteration:  3209
 C         1.310739         0.008660        -0.467270
 C        -0.090355        -0.125927        -0.051632
 C        -1.272325        -0.129704         0.143185
 C        -2.734216         0.118342         0.502074
 O        -2.958945        -0.059983         2.005261
 C        -3.260506         1.397508        -0.114630
 C        -4.617766         1.251198        -0.875117
 C        -4.759584         1.517927        -2.308637
 O        -5.362418         2.386076        -1.309829
 H         1.908279         0.819378        -0.004496
 H         1.978792        -0.933988        -0.525065
 H         1.327907         0.468667        -1.476593
 H        -3.288115        -0.751897         0.132630
 H        -3.168079        -1.019079         2.002846
 H        -3.405031         2.035360         0.693072
 H        -2.502224         1.914469        -0.650612
 H        -5.296948         0.479776        -0.412119
 H        -3.784344         1.966871        -2.753383
 H        -5.541179         0.940389        -2.782283
