19
Iteration:  1599charge 0 multiplicity 1
 C         0.036848        -0.028009        -1.592581
 C        -0.786578         0.056848        -0.430846
 C        -1.664876         0.171971         0.471186
 C        -2.964392         0.095934         1.185183
 O        -2.692067         0.218391         2.538120
 C        -3.904073         1.124016         0.425155
 C        -3.879072         0.958739        -1.121966
 C        -3.309301         1.922372        -2.025083
 O        -4.715822         1.821735        -1.852185
 H        -0.591429         0.425011        -2.281729
 H         0.979599         0.389905        -1.609737
 H         0.105586        -1.048491        -1.900468
 H        -3.415307        -0.909318         0.995466
 H        -2.379600         1.122211         2.835391
 H        -4.980217         0.816543         0.793098
 H        -3.778515         2.152138         0.753215
 H        -3.920022        -0.059128        -1.527190
 H        -2.740488         2.749345        -1.646790
 H        -3.069160         1.676714        -3.026449
