19
Iteration:  4299charge 0 multiplicity 1
 C         0.670228        -0.146741        -1.197514
 C        -0.532784        -0.040066        -0.390267
 C        -1.657676         0.103901         0.099199
 C        -2.914392         0.137927         1.003108
 O        -2.619690         0.571520         2.378884
 C        -4.059113         1.251805         0.511141
 C        -4.554585         1.088485        -0.866748
 C        -3.721447         1.103166        -2.147095
 O        -4.621105         2.229802        -1.902049
 H         0.439877         0.316005        -2.082651
 H         1.485410         0.307095        -0.613722
 H         0.832463        -1.244506        -1.336382
 H        -3.326277        -0.887917         1.106900
 H        -1.685478         0.732496         2.383989
 H        -4.906540         1.336076         1.223040
 H        -3.588053         2.171383         0.880132
 H        -5.516440         0.481148        -1.029910
 H        -2.586550         1.302064        -2.193721
 H        -4.035453         0.291676        -2.834599
