19
Iteration:  3044
 C         0.924125        -0.030376        -0.820124
 C        -0.469701         0.161680        -0.453336
 C        -1.528462         0.206096         0.088924
 C        -2.849893         0.031120         0.744243
 O        -2.677080         0.039202         2.194159
 C        -3.810049         1.141727         0.335776
 C        -4.471853         0.995668        -1.018594
 C        -3.848323         1.631457        -2.133008
 O        -5.114929         2.168033        -1.503570
 H         1.423806         0.911896        -0.908164
 H         1.367438        -0.795873        -0.113632
 H         0.886007        -0.424052        -1.829970
 H        -3.358464        -0.939098         0.474093
 H        -3.208424         0.778340         2.510713
 H        -4.630000         1.314505         1.197571
 H        -3.188690         2.062426         0.338111
 H        -4.872458        -0.007948        -1.258114
 H        -3.048952         2.362167        -1.861825
 H        -4.035000         1.360162        -3.245859
