19
Iteration:   360
 C         1.620991        -0.063601         0.036824
 C         0.184058        -0.305218        -0.073462
 C        -1.030509        -0.077499        -0.092874
 C        -2.541343         0.112318        -0.059159
 O        -3.326339        -0.179317         1.255352
 C        -3.130080         1.651238        -0.291831
 C        -4.676515         1.597776        -0.381236
 C        -5.404399         1.074371        -1.517817
 O        -5.279717         2.555742        -1.303732
 H         2.166486        -0.535664        -0.803150
 H         1.833109         1.004467         0.168767
 H         2.024792        -0.718832         0.853210
 H        -3.003992        -0.542510        -0.758132
 H        -3.784746        -1.014969         1.106377
 H        -2.712410         2.254004         0.544446
 H        -2.837999         2.208680        -1.250398
 H        -5.136424         1.665403         0.581516
 H        -4.685654         0.808503        -2.343305
 H        -6.432215         0.571275        -1.511711
