19
Iteration:  1952charge 0 multiplicity 1
 C         0.993314         0.110386        -0.809875
 C        -0.250926         0.009544        -0.149967
 C        -1.421897        -0.032146         0.257191
 C        -2.811441         0.082194         0.703442
 O        -2.982551         0.144705         2.047818
 C        -3.298851         1.381713         0.034438
 C        -4.514401         1.118769        -0.765792
 C        -4.508138         1.229262        -2.237560
 O        -5.019612         2.289097        -1.473009
 H         1.690305         0.654966        -0.173248
 H         1.320727        -0.908880        -0.955981
 H         0.967801         0.667816        -1.722247
 H        -3.434624        -0.814961         0.231226
 H        -2.513447        -0.609561         2.458711
 H        -3.468616         2.151816         0.803682
 H        -2.617473         1.888650        -0.716634
 H        -5.356111         0.517301        -0.390096
 H        -3.578792         1.459793        -2.826773
 H        -5.220152         0.851075        -2.999683
