19
Iteration:  2064
 C         1.473442        -0.015613        -0.447313
 C        -0.033780         0.127093        -0.026453
 C        -1.167750        -0.058048         0.309804
 C        -2.661028         0.034573         0.387828
 O        -3.101954        -0.045754         1.798348
 C        -3.208054         1.266574        -0.299041
 C        -4.640010         1.448584        -0.653485
 C        -5.227712         1.072651        -1.894273
 O        -5.069523         2.501746        -1.543765
 H         2.121178         0.016438         0.380167
 H         1.568193        -0.839458        -1.079554
 H         1.734874         0.882312        -0.909977
 H        -3.243964        -0.799929        -0.109058
 H        -4.046871         0.306617         1.800633
 H        -2.902083         2.111846         0.349133
 H        -2.688478         1.354251        -1.302128
 H        -5.311816         1.414327         0.188419
 H        -4.619939         0.576776        -2.666295
 H        -6.274114         0.767519        -1.972643
