19
Iteration:  3871charge 0 multiplicity 1
 C         1.232934        -0.300830        -0.401972
 C        -0.130429        -0.008052         0.013753
 C        -1.313733        -0.057057         0.176890
 C        -2.685149         0.180710         0.537077
 O        -2.895809         0.293292         1.928917
 C        -3.186481         1.432771        -0.271524
 C        -4.598539         1.176864        -0.841107
 C        -4.855248         1.271148        -2.297093
 O        -5.415363         2.296965        -1.319326
 H         1.339993        -1.192943        -1.018190
 H         1.788985         0.428201        -0.896150
 H         1.917148        -0.563400         0.460101
 H        -3.254822        -0.701762         0.309184
 H        -2.118632         0.872302         2.260853
 H        -3.108851         2.336423         0.452802
 H        -2.514140         1.843132        -1.088178
 H        -5.134175         0.371853        -0.345555
 H        -4.053756         1.816352        -2.792408
 H        -5.452339         0.597280        -2.805091
