19
Iteration:  3491charge 0 multiplicity 1
 C         1.575739        -0.351065         0.645499
 C         0.143913        -0.120796         0.104304
 C        -1.043021         0.204428        -0.084210
 C        -2.455546         0.138849        -0.372700
 O        -3.143256         0.009979         0.979074
 C        -2.982353         1.569364        -0.863611
 C        -4.481003         1.839843        -0.523610
 C        -5.675440         0.920919        -0.797746
 O        -5.473954         2.244898        -1.526384
 H         1.481156        -1.017462         1.422625
 H         2.126303        -0.725836        -0.244196
 H         1.926875         0.596247         1.032179
 H        -2.744858        -0.755332        -0.978692
 H        -4.007559        -0.530173         0.961372
 H        -2.350831         2.420518        -0.353306
 H        -2.657248         1.823366        -1.903747
 H        -4.632668         2.331221         0.454192
 H        -5.651543         0.151683        -1.544885
 H        -6.597634         0.807394        -0.147096
