19
Iteration:  1294
 C         1.062239        -0.215556        -0.922424
 C        -0.264590        -0.000208        -0.250642
 C        -1.295828         0.007888         0.366434
 C        -2.767821         0.136872         0.677745
 O        -3.034244        -0.018118         2.137899
 C        -3.418709         1.492499         0.168063
 C        -4.416072         1.256693        -0.868032
 C        -4.406401         1.497826        -2.318750
 O        -5.209845         2.286336        -1.423280
 H         1.200502        -1.198790        -1.417526
 H         1.124792         0.581609        -1.690826
 H         1.876219         0.071380        -0.229839
 H        -3.353689        -0.563672         0.126149
 H        -2.587803        -0.867557         2.207530
 H        -3.991299         1.948195         0.984527
 H        -2.685655         2.165781        -0.220767
 H        -5.024423         0.361999        -0.625814
 H        -3.547491         1.921014        -2.730350
 H        -5.017658         0.774135        -2.774672
