19
Iteration:  1377
 C         0.758855        -0.118314        -1.027953
 C        -0.429412         0.117782        -0.261804
 C        -1.563985        -0.098739         0.221276
 C        -2.836368         0.025912         0.901455
 O        -2.707616         0.084912         2.326381
 C        -3.627262         1.288510         0.339698
 C        -4.302892         1.104262        -1.057142
 C        -3.991825         1.732579        -2.275277
 O        -5.168037         2.181059        -1.592837
 H         0.506639        -0.869132        -1.737224
 H         1.151800         0.680836        -1.652901
 H         1.517712        -0.609399        -0.417215
 H        -3.569889        -0.801640         0.617226
 H        -1.794977         0.474296         2.485326
 H        -4.475811         1.623914         0.966075
 H        -3.096899         2.251855         0.216919
 H        -4.927217         0.230170        -1.293123
 H        -3.196751         2.487577        -2.428261
 H        -4.181702         1.239109        -3.284118
