19
Iteration:  3052
 C         0.954048        -0.065439        -0.812069
 C        -0.414650         0.144313        -0.460927
 C        -1.536411         0.231496         0.100491
 C        -2.850920         0.050681         0.714995
 O        -2.680008         0.062182         2.128327
 C        -3.814480         1.186466         0.305414
 C        -4.485883         0.990453        -0.964222
 C        -3.905404         1.667761        -2.111405
 O        -5.127467         2.148380        -1.483483
 H         1.586173         0.817372        -0.619131
 H         1.325736        -0.699476         0.049661
 H         1.047921        -0.534972        -1.847606
 H        -3.231716        -0.956655         0.370162
 H        -3.436497         0.506349         2.489336
 H        -4.522491         1.125965         1.085133
 H        -3.270835         2.144287         0.325203
 H        -4.983333         0.009200        -1.109974
 H        -2.941236         2.094004        -1.911778
 H        -3.998377         1.249067        -3.140329
