19
Iteration:  4132
 C         0.924845        -0.049327        -0.918075
 C        -0.388673         0.005311        -0.350753
 C        -1.382720        -0.020314         0.387713
 C        -2.758227         0.186224         0.835909
 O        -2.899873         0.315222         2.247033
 C        -3.451326         1.460664         0.200409
 C        -4.575780         1.260507        -0.831729
 C        -4.456401         0.928642        -2.210258
 O        -4.870865         2.265993        -1.830572
 H         0.812509        -0.105959        -2.011712
 H         1.460802         0.807098        -0.644109
 H         1.404342        -0.924136        -0.518005
 H        -3.144852        -0.847172         0.566479
 H        -2.427291        -0.358591         2.667225
 H        -3.874846         2.171920         0.996547
 H        -2.656300         2.001883        -0.281773
 H        -5.502137         1.032312        -0.151537
 H        -3.489228         0.950061        -2.581605
 H        -5.178739         0.316085        -2.788282
