19
Iteration:  1475
 C         0.571358        -0.041889        -1.126689
 C        -0.712522         0.041508        -0.473156
 C        -1.785260        -0.066385        -0.045867
 C        -2.994979         0.061413         0.942143
 O        -2.409549         0.517822         2.182610
 C        -4.239466         0.885906         0.499017
 C        -4.368167         0.936505        -0.984458
 C        -3.369212         1.802055        -1.813575
 O        -4.781670         2.115828        -1.702314
 H         0.393196        -0.313277        -2.147267
 H         1.221202         0.825214        -1.144331
 H         1.177372        -0.845588        -0.716313
 H        -3.373376        -0.925009         1.073750
 H        -1.691716         1.210862         2.112347
 H        -5.214895         0.391848         0.839076
 H        -4.025293         1.882426         0.983304
 H        -4.851191         0.005696        -1.340260
 H        -2.672037         2.444751        -1.207823
 H        -3.106277         1.352591        -2.832648
