19
Iteration:   724
 C         1.497829        -0.100730        -0.047861
 C        -0.043652        -0.179459         0.107913
 C        -1.218520        -0.153975        -0.197403
 C        -2.653929         0.217020         0.013042
 O        -2.965020        -0.319518         1.319974
 C        -3.144160         1.626998        -0.104387
 C        -4.724266         1.593564        -0.419808
 C        -5.133663         1.231362        -1.773090
 O        -5.349746         2.513263        -1.313481
 H         1.616954         0.749598        -0.713313
 H         2.114164        -0.018480         0.857006
 H         1.839416        -1.072295        -0.455323
 H        -3.427440        -0.345602        -0.563284
 H        -2.499248        -1.211993         1.324309
 H        -2.868140         2.163394         0.819292
 H        -2.761900         2.270209        -0.875689
 H        -5.477556         1.428797         0.372821
 H        -4.408773         1.144512        -2.618058
 H        -6.046641         0.567808        -1.930202
