19
Iteration:  1073
 C         1.497878        -0.147380        -0.271518
 C         0.078249        -0.129384         0.189996
 C        -1.115758         0.078110         0.282805
 C        -2.615666         0.091308         0.101757
 O        -3.349428        -0.283694         1.287576
 C        -3.005902         1.543865        -0.403543
 C        -4.542162         1.673998        -0.525095
 C        -5.387367         1.060410        -1.599057
 O        -5.229426         2.508789        -1.404271
 H         2.117763        -0.579352         0.502784
 H         1.495471        -0.722842        -1.214430
 H         1.888926         0.857918        -0.451329
 H        -2.847634        -0.604665        -0.786844
 H        -2.875531        -0.000432         2.066131
 H        -2.747859         2.359897         0.368240
 H        -2.502733         1.847036        -1.369846
 H        -4.837786         1.435048         0.547205
 H        -5.041248         0.694448        -2.555028
 H        -6.304515         0.652137        -1.280653
