19
Iteration:   796
 C         1.603622        -0.211061         0.078779
 C         0.199388         0.132957        -0.006639
 C        -1.015421         0.078371         0.186659
 C        -2.493401         0.101157        -0.006085
 O        -3.361482        -0.355534         1.041692
 C        -3.122449         1.426789        -0.558612
 C        -4.632103         1.516874        -0.397689
 C        -5.634351         1.258167        -1.483255
 O        -5.220762         2.600690        -1.216599
 H         2.343446         0.600764        -0.060496
 H         1.872050        -0.694838         1.021150
 H         1.880137        -1.037480        -0.598293
 H        -2.644488        -0.674795        -0.776015
 H        -2.845286        -0.983572         1.604345
 H        -2.624382         2.342883        -0.234226
 H        -2.800652         1.311401        -1.658113
 H        -4.808337         1.394316         0.615201
 H        -5.309108         0.901685        -2.412634
 H        -6.617214         0.883568        -1.201248
