19
Iteration:   264charge 0 multiplicity 1
 C         1.584985        -0.310566         0.328621
 C         0.193263         0.097188         0.041245
 C        -1.028933         0.122554         0.017415
 C        -2.528846         0.132629        -0.273092
 O        -3.064628        -0.557589         0.840350
 C        -3.063083         1.505194        -0.545911
 C        -4.617941         1.725999        -0.325654
 C        -5.729194         1.181022        -1.137619
 O        -5.328634         2.589206        -1.308664
 H         1.708043        -1.325197        -0.082602
 H         2.380430         0.315718        -0.050893
 H         1.703296        -0.415703         1.425197
 H        -2.717894        -0.482957        -1.254376
 H        -3.871034        -0.074417         1.165816
 H        -2.551178         2.342958         0.001464
 H        -2.930538         1.610584        -1.611511
 H        -4.862038         2.039523         0.617834
 H        -5.572644         0.640098        -2.070792
 H        -6.707609         0.986370        -0.660810
