19
Iteration:  2502charge 0 multiplicity 1
 C         1.470620         0.119600        -0.273305
 C        -0.018485         0.025622        -0.098605
 C        -1.242374        -0.140863         0.157629
 C        -2.693356         0.050560         0.319440
 O        -3.171115        -0.420069         1.585456
 C        -3.198202         1.465519        -0.181968
 C        -4.657134         1.432407        -0.555821
 C        -5.231282         1.238830        -1.977274
 O        -5.049484         2.578114        -1.379843
 H         1.836181        -0.644370        -1.032096
 H         1.695979         1.135790        -0.612792
 H         2.127814         0.124496         0.645514
 H        -3.197651        -0.593496        -0.526535
 H        -2.526570        -0.157618         2.233564
 H        -2.894497         2.345106         0.417296
 H        -2.582766         1.519713        -1.112771
 H        -5.315280         1.093002         0.296023
 H        -4.546446         1.048899        -2.802831
 H        -6.225022         0.884745        -2.204584
