19
Iteration:  4236charge 0 multiplicity 1
 C         0.691733        -0.006303        -0.995400
 C        -0.604593         0.010566        -0.432045
 C        -1.759377         0.145742         0.017268
 C        -2.957979         0.213973         0.964498
 O        -2.700454         0.293782         2.329163
 C        -3.625130         1.551584         0.478200
 C        -4.446408         1.206384        -0.825536
 C        -3.995437         0.850401        -2.174863
 O        -4.624210         2.103778        -1.884791
 H         0.724701         0.236210        -2.111584
 H         1.425921         0.712860        -0.425260
 H         1.123538        -1.072703        -0.962816
 H        -3.612898        -0.663783         0.732313
 H        -1.785759        -0.050552         2.486863
 H        -4.402337         1.901391         1.196936
 H        -2.873591         2.440816         0.332564
 H        -5.386102         0.877069        -0.478780
 H        -2.903571         1.020933        -2.343726
 H        -4.730513         0.165655        -2.650012
