19
Iteration:  1270
 C         1.051483        -0.194758        -0.742521
 C        -0.190181         0.057887        -0.124588
 C        -1.393407         0.040746         0.147238
 C        -2.736112         0.042470         0.637170
 O        -2.882224        -0.001853         2.022451
 C        -3.348600         1.409978         0.134786
 C        -4.584089         1.278664        -0.759778
 C        -4.472757         1.469289        -2.254412
 O        -5.209869         2.357723        -1.483110
 H         1.003082        -1.301775        -0.998083
 H         1.123215         0.369284        -1.754363
 H         1.985160         0.099510        -0.137980
 H        -3.433236        -0.596213         0.180474
 H        -2.848153        -0.991755         2.237276
 H        -3.495867         1.951957         1.088684
 H        -2.770483         1.930365        -0.594229
 H        -5.414078         0.608803        -0.442226
 H        -3.481216         1.666598        -2.471277
 H        -5.103819         0.920800        -2.908042
