19
Iteration:    18charge 0 multiplicity 1
 C         1.468837        -0.126976         0.075473
 C         0.037158         0.192187        -0.059903
 C        -1.173283         0.053318         0.009398
 C        -2.615826        -0.003608        -0.201717
 O        -3.211892        -0.586707         1.024968
 C        -3.117454         1.409186        -0.354673
 C        -4.605104         1.367091        -0.395430
 C        -5.469423         1.474277        -1.588965
 O        -5.047941         2.724103        -0.948713
 H         1.592664        -0.969883         0.783241
 H         1.888077        -0.374055        -0.922818
 H         2.096901         0.667312         0.521533
 H        -2.812486        -0.643329        -1.098153
 H        -2.506729        -1.208042         1.231956
 H        -2.879820         2.060949         0.532609
 H        -2.728037         2.009033        -1.241772
 H        -5.120703         1.023436         0.549336
 H        -5.097582         1.237997        -2.642024
 H        -6.571210         1.209611        -1.480939
