19
Iteration:  3009
 C         0.688872         0.189942        -1.070550
 C        -0.533720         0.116285        -0.337300
 C        -1.649063        -0.046095         0.222464
 C        -2.930802        -0.005352         0.896193
 O        -2.664348         0.086706         2.357997
 C        -3.890681         1.116506         0.443916
 C        -4.249907         1.006670        -1.082493
 C        -3.707641         1.719211        -2.236927
 O        -5.019324         2.162069        -1.645301
 H         1.042403         1.177227        -1.339119
 H         1.610661        -0.279670        -0.661715
 H         0.576535        -0.367017        -2.028237
 H        -3.423619        -1.011658         0.732420
 H        -1.675544        -0.008417         2.404326
 H        -4.916497         0.964742         0.837381
 H        -3.576431         2.147252         0.726571
 H        -4.674328         0.020434        -1.347559
 H        -2.930718         2.475876        -2.186436
 H        -3.809788         1.323488        -3.275016
