19
Iteration:  1446
 C         0.701142        -0.027551        -1.008216
 C        -0.680892        -0.125304        -0.602650
 C        -1.724199        -0.032005        -0.075411
 C        -2.968270         0.059411         0.891877
 O        -2.526136         0.432592         2.184045
 C        -4.042678         1.046773         0.461085
 C        -4.372526         0.922738        -0.941295
 C        -3.514214         1.781057        -1.798356
 O        -4.934541         2.135155        -1.699252
 H         0.935256        -0.340095        -2.059209
 H         1.040990         1.030314        -1.061227
 H         1.276383        -0.739561        -0.373815
 H        -3.468476        -0.975772         1.065896
 H        -1.979243         1.273299         2.088154
 H        -4.875205         1.059935         1.199879
 H        -3.545079         1.976056         0.678719
 H        -4.885581        -0.046723        -1.141405
 H        -2.728437         2.314659        -1.293982
 H        -3.170866         1.451952        -2.715876
