19
Iteration:  3454charge 0 multiplicity 1
 C         1.404480        -0.178150         0.538061
 C         0.068514        -0.122665         0.196306
 C        -1.085698        -0.061114        -0.145276
 C        -2.579620         0.196307        -0.263590
 O        -2.908530        -0.152340         1.110324
 C        -3.050045         1.632434        -0.854469
 C        -4.535759         1.826736        -0.452172
 C        -5.571138         0.968616        -1.017382
 O        -5.386250         2.308591        -1.530946
 H         1.737395        -0.857306         1.416466
 H         1.945154        -0.677206        -0.262288
 H         1.975544         0.793062         0.663756
 H        -2.882489        -0.508057        -1.042104
 H        -3.822432         0.169898         1.381500
 H        -2.394259         2.359089        -0.578174
 H        -3.223497         1.534514        -1.912038
 H        -4.738083         2.236911         0.573515
 H        -5.194248         0.167864        -1.766524
 H        -6.486689         0.726013        -0.518177
