19
Iteration:  2013
 C         1.076924         0.233439        -0.709670
 C        -0.085108        -0.184352        -0.013885
 C        -1.288157        -0.067919         0.371588
 C        -2.727721         0.000221         0.570799
 O        -3.073300         0.015352         1.981809
 C        -3.206126         1.354105        -0.238812
 C        -4.575027         1.283894        -0.725319
 C        -4.888858         1.122257        -2.179981
 O        -4.957810         2.436727        -1.445081
 H         1.885724         0.523217         0.031755
 H         1.387437        -0.720508        -1.272339
 H         0.973061         1.093978        -1.483198
 H        -3.296882        -0.847937         0.245383
 H        -3.239323         0.977968         2.243113
 H        -3.124444         2.176337         0.530698
 H        -2.548232         1.570233        -1.045432
 H        -5.251698         0.782967         0.013750
 H        -4.079622         1.063009        -2.944713
 H        -5.866210         0.832293        -2.516119
