19
Iteration:  4561
 C         0.696406        -0.599031        -1.171542
 C        -0.449390        -0.257092        -0.351477
 C        -1.439443        -0.011723         0.307267
 C        -2.919431         0.249509         1.084401
 O        -2.766319         0.775700         2.356551
 C        -3.823348         1.318408         0.423411
 C        -3.990275         1.094117        -1.154653
 C        -3.949077         2.202974        -2.214223
 O        -5.232094         1.584780        -1.784432
 H         1.107358         0.270156        -1.718535
 H         1.586896        -1.106691        -0.618601
 H         0.466851        -1.339930        -2.003505
 H        -3.435999        -0.719159         1.187128
 H        -2.074604         0.100895         2.746622
 H        -4.740060         1.425052         1.036342
 H        -3.348296         2.181018         0.786482
 H        -3.618768         0.014676        -1.291773
 H        -3.782876         3.168160        -1.868540
 H        -3.688999         1.866596        -3.208775
