19
Iteration:  3749
 C         1.343094        -0.099305        -0.292496
 C        -0.040958        -0.034445        -0.024779
 C        -1.201715        -0.019727         0.347035
 C        -2.641505         0.025728         0.267647
 O        -3.177375         0.209616         1.671320
 C        -3.107234         1.227656        -0.422638
 C        -4.634316         1.537451        -0.588471
 C        -5.260312         1.048595        -1.769430
 O        -5.048578         2.461323        -1.594795
 H         1.738924        -1.094039        -0.578756
 H         1.708565         0.515114        -1.040917
 H         2.014112         0.173308         0.527180
 H        -3.039472        -0.886487        -0.180989
 H        -3.004139        -0.579415         2.250168
 H        -2.628035         2.128144         0.183844
 H        -2.593250         1.378149        -1.375165
 H        -5.194701         1.644580         0.382225
 H        -4.601054         0.757616        -2.551403
 H        -6.269152         0.604157        -1.776975
