19
Iteration:  4821
 C         0.980608        -0.305262        -0.728317
 C        -0.471112        -0.185579        -0.357409
 C        -1.566632         0.015574         0.172357
 C        -2.844517         0.231321         0.679206
 O        -2.801215         0.139339         2.158055
 C        -3.477684         1.634014         0.276505
 C        -4.568946         1.386104        -0.778790
 C        -4.215448         1.137557        -2.161309
 O        -4.987746         2.301985        -1.776854
 H         1.437616         0.648311        -0.471948
 H         1.362844        -1.105496        -0.119950
 H         1.117166        -0.448587        -1.814576
 H        -3.527187        -0.511075         0.244899
 H        -1.904325        -0.064839         2.539481
 H        -3.838686         2.093215         1.256377
 H        -2.693293         2.312264        -0.005330
 H        -5.387298         0.805043        -0.314307
 H        -3.186891         1.460346        -2.614964
 H        -4.787366         0.382532        -2.755997
