19
Iteration:  2972charge 0 multiplicity 1
 C         0.456537         0.436508        -1.300368
 C        -0.680152        -0.045566        -0.406984
 C        -1.713359        -0.114881         0.168684
 C        -2.947191        -0.064552         0.980820
 O        -2.729986         0.249513         2.389424
 C        -3.810092         1.118817         0.412285
 C        -4.103077         0.879774        -1.075190
 C        -3.434370         1.761880        -1.994788
 O        -4.893276         2.049562        -1.703461
 H         0.085924         1.489610        -1.563687
 H         1.450118         0.237834        -0.850360
 H         0.375607        -0.177491        -2.272339
 H        -3.510033        -1.021556         0.820575
 H        -3.151071        -0.404204         2.935603
 H        -4.638920         1.186309         1.053760
 H        -3.247711         2.011187         0.618311
 H        -4.650619        -0.058922        -1.303519
 H        -2.696511         2.424209        -1.551507
 H        -3.244412         1.448588        -2.994020
