19
Iteration:  2860charge 0 multiplicity 1
 C        -0.012621         0.307583        -1.737719
 C        -0.809632         0.251454        -0.506346
 C        -1.565738         0.270787         0.513959
 C        -2.895419        -0.071722         0.998417
 O        -3.020426         0.172030         2.363564
 C        -3.980728         0.886908         0.440990
 C        -3.977922         0.821004        -1.012708
 C        -3.127549         1.795813        -1.699259
 O        -4.513731         1.951285        -1.760898
 H        -0.553865         0.830292        -2.642831
 H         0.924419         0.971645        -1.562878
 H         0.167232        -0.659950        -2.264262
 H        -3.202756        -1.163679         0.912940
 H        -2.077998         0.123745         2.749158
 H        -4.882931         0.464651         0.856993
 H        -3.762602         1.777935         0.951165
 H        -4.209904        -0.181048        -1.430749
 H        -2.659324         2.630623        -1.127079
 H        -2.741023         1.677381        -2.764062
