19
Iteration:   128charge 0 multiplicity 1
 C         1.456543         0.016620         0.393965
 C         0.070154        -0.069170         0.050837
 C        -1.103202        -0.182395        -0.231868
 C        -2.555031         0.053428        -0.402323
 O        -3.331293        -0.368098         0.786350
 C        -2.967089         1.491371        -0.561563
 C        -4.485091         1.667658        -0.200134
 C        -5.534452         1.211856        -1.097720
 O        -5.187441         2.591403        -1.148113
 H         1.831111        -0.986435         0.689595
 H         2.050363         0.420334        -0.466613
 H         1.629227         0.666609         1.274762
 H        -3.014813        -0.490294        -1.293510
 H        -3.266551        -1.330988         0.840885
 H        -2.192216         2.043518         0.042249
 H        -2.769741         1.915598        -1.623678
 H        -4.771300         1.939565         0.873195
 H        -5.193469         0.598071        -2.015885
 H        -6.585089         0.971879        -0.700169
