19
Iteration:  2096charge 0 multiplicity 1
 C         1.469497        -0.111665        -0.132843
 C        -0.028677         0.054696        -0.138206
 C        -1.158778         0.133764         0.209375
 C        -2.636970         0.107812         0.210284
 O        -3.069055        -0.056201         1.654107
 C        -3.129020         1.394098        -0.446484
 C        -4.617286         1.543884        -0.563303
 C        -5.457333         0.971574        -1.706875
 O        -5.065032         2.411371        -1.523949
 H         1.785204        -0.362526         0.883815
 H         1.870754        -0.926675        -0.737900
 H         1.836767         0.860295        -0.451892
 H        -3.041905        -0.755185        -0.421374
 H        -3.766460        -0.692162         1.609909
 H        -2.770141         2.214156         0.182437
 H        -2.602724         1.548044        -1.443050
 H        -4.996142         1.641984         0.444970
 H        -4.903110         0.330816        -2.403308
 H        -6.552525         0.930449        -1.663824
