19
Iteration:  2089
 C         1.458943        -0.090534        -0.198915
 C        -0.011931         0.073156        -0.159766
 C        -1.209558         0.121992         0.223723
 C        -2.581189         0.045565         0.296860
 O        -3.091674        -0.056055         1.689107
 C        -3.046230         1.387829        -0.413919
 C        -4.655400         1.480071        -0.568984
 C        -5.446134         1.025654        -1.744450
 O        -5.063579         2.428225        -1.551704
 H         1.831206        -0.217507         0.802904
 H         1.700064        -0.946002        -0.799260
 H         1.883254         0.868517        -0.454334
 H        -3.121165        -0.774788        -0.207023
 H        -3.954056        -0.518138         1.589232
 H        -2.660132         2.192834         0.302035
 H        -2.701998         1.543698        -1.403808
 H        -5.240714         1.714654         0.342789
 H        -4.859765         0.519170        -2.543842
 H        -6.480185         0.737859        -1.774908
