19
Iteration:  3939
 C         1.322933        -0.398037        -0.255855
 C        -0.137760        -0.294100        -0.239657
 C        -1.228417         0.190746         0.141065
 C        -2.596538         0.242207         0.542071
 O        -2.700919         0.357624         1.961093
 C        -3.472770         1.442812        -0.097552
 C        -4.833814         1.143023        -0.860174
 C        -4.724617         1.334318        -2.317410
 O        -5.500978         2.277276        -1.430747
 H         1.783789        -1.122348        -0.874398
 H         1.864164         0.530523        -0.407498
 H         1.637694        -0.719988         0.756890
 H        -3.068490        -0.669984         0.192992
 H        -1.774896         0.482553         2.197781
 H        -3.805675         2.183374         0.722994
 H        -2.658706         1.906074        -0.839736
 H        -5.446693         0.439027        -0.333192
 H        -3.844362         1.816606        -2.673342
 H        -5.411198         0.665076        -2.905110
