19
Iteration:  1719charge 0 multiplicity 1
 C         0.388497         0.038840        -1.297243
 C        -0.604691        -0.027426        -0.387358
 C        -1.546002        -0.169956         0.415710
 C        -2.925532        -0.052594         1.065853
 O        -2.669642         0.500223         2.408680
 C        -3.763055         1.039157         0.344244
 C        -4.160027         0.974492        -1.108624
 C        -3.652801         1.855449        -2.232277
 O        -4.960482         2.114130        -1.695696
 H         0.566180         1.030817        -1.667981
 H         1.310754        -0.209722        -0.756294
 H         0.332794        -0.640600        -2.156770
 H        -3.412963        -0.979532         1.047290
 H        -2.415492        -0.307847         2.931781
 H        -4.706756         0.970931         1.002044
 H        -3.468941         2.032379         0.621586
 H        -4.525884         0.003413        -1.503296
 H        -2.840216         2.552606        -1.988766
 H        -3.578003         1.420473        -3.254533
