19
Iteration:   805
 C         1.666790        -0.208687         0.077979
 C         0.198425         0.083176         0.115697
 C        -1.047236         0.095521         0.186806
 C        -2.516439         0.022677        -0.064065
 O        -3.306300        -0.327625         1.041840
 C        -3.105270         1.422664        -0.619367
 C        -4.546720         1.555374        -0.441384
 C        -5.698438         1.274144        -1.456518
 O        -5.261008         2.569029        -1.180677
 H         2.261419         0.735666        -0.072435
 H         1.851884        -0.654983         1.084958
 H         1.795925        -0.886520        -0.796674
 H        -2.733102        -0.743852        -0.858158
 H        -2.895128        -1.036464         1.575367
 H        -2.618077         2.353051        -0.171531
 H        -3.032715         1.460799        -1.756448
 H        -4.911293         1.579966         0.540616
 H        -5.308062         0.810962        -2.343428
 H        -6.747867         1.180570        -1.308230
