19
Iteration:  3654
 C         1.377467        -0.153697         0.235997
 C        -0.024153         0.043723         0.104393
 C        -1.220413        -0.082419        -0.146537
 C        -2.646163         0.158115         0.042015
 O        -3.158719        -0.132015         1.370695
 C        -2.931961         1.587180        -0.638199
 C        -4.461418         1.843577        -0.484887
 C        -5.529511         1.012399        -1.161053
 O        -5.170792         2.196451        -1.744008
 H         1.609067        -1.204978         0.349396
 H         1.894656         0.180906        -0.773906
 H         1.963931         0.358125         1.064585
 H        -3.249720        -0.538917        -0.537614
 H        -2.480228        -0.610277         1.800791
 H        -2.293188         2.323432        -0.409012
 H        -2.530575         1.583152        -1.671785
 H        -4.577314         2.554919         0.390527
 H        -5.276598         0.082575        -1.727122
 H        -6.556980         0.924996        -0.688072
