19
Iteration:  3702
 C         1.417321        -0.041922        -0.050616
 C         0.029919        -0.219360         0.000530
 C        -1.198761        -0.087080         0.095288
 C        -2.647473         0.081608         0.156804
 O        -3.166360         0.064369         1.523398
 C        -3.070495         1.499491        -0.400084
 C        -4.605784         1.678505        -0.521737
 C        -5.507585         1.008467        -1.482378
 O        -4.992014         2.346249        -1.762532
 H         2.087547        -0.942329        -0.073806
 H         1.806618         0.621402        -0.894174
 H         1.763599         0.471602         0.844722
 H        -3.153847        -0.748140        -0.315116
 H        -2.819032        -0.678101         2.099991
 H        -2.458403         2.206090         0.155986
 H        -2.804511         1.808018        -1.406248
 H        -5.088449         2.031278         0.373823
 H        -5.234616         0.090151        -2.005527
 H        -6.564220         1.127899        -1.277566
