19
Iteration:  1201charge 0 multiplicity 1
 C         1.271375        -0.135035        -0.263074
 C        -0.178351        -0.212580        -0.360097
 C        -1.354153         0.042308        -0.099573
 C        -2.748202         0.120004         0.460056
 O        -2.751663        -0.152701         1.877102
 C        -3.434926         1.492051         0.115119
 C        -4.761508         1.481618        -0.696111
 C        -4.885146         1.209357        -2.121507
 O        -5.085313         2.554091        -1.532183
 H         1.758037        -1.132942        -0.036341
 H         1.765070         0.134959        -1.264182
 H         1.550245         0.686904         0.458593
 H        -3.122428        -0.796656         0.065913
 H        -1.843115        -0.341134         2.242052
 H        -3.842407         1.791002         1.095608
 H        -2.520357         2.023354        -0.266144
 H        -5.492813         1.045263        -0.005331
 H        -3.856470         0.911803        -2.579030
 H        -5.908751         0.882172        -2.388028
