19
Iteration:  1006charge 0 multiplicity 1
 C         1.577424        -0.143530         0.180246
 C         0.121601        -0.000673        -0.014300
 C        -1.111557         0.093647         0.030096
 C        -2.593720         0.077322        -0.044355
 O        -3.343813        -0.333099         1.082148
 C        -3.030547         1.378552        -0.676817
 C        -4.527574         1.630490        -0.405655
 C        -5.573171         1.202086        -1.272001
 O        -5.182985         2.538845        -1.320894
 H         1.795455         0.052299         1.234938
 H         1.897384        -1.152336        -0.129077
 H         2.198704         0.538589        -0.414799
 H        -2.674927        -0.864423        -0.645870
 H        -3.011455        -0.009223         1.973166
 H        -2.389758         2.185895        -0.213973
 H        -2.773264         1.266289        -1.789266
 H        -5.003318         1.735836         0.612702
 H        -5.440085         0.729142        -2.240647
 H        -6.522329         0.966267        -0.884200
