19
Iteration:  4072charge 0 multiplicity 1
 C         1.072788        -0.243907        -0.739747
 C        -0.216994        -0.057429        -0.098126
 C        -1.368851         0.066599         0.240908
 C        -2.762326         0.277633         0.520182
 O        -2.903085         0.369894         2.039711
 C        -3.514176         1.548986         0.115106
 C        -4.596349         1.202118        -0.705624
 C        -4.503711         1.039808        -2.211811
 O        -5.063444         2.184342        -1.602176
 H         1.024753        -0.618984        -1.749086
 H         1.778794         0.642935        -0.718373
 H         1.642668        -1.069529        -0.227505
 H        -3.287742        -0.684508         0.309240
 H        -2.156251        -0.166073         2.330369
 H        -3.991502         2.000620         1.023528
 H        -2.820157         2.408497        -0.356109
 H        -5.375721         0.633827        -0.288915
 H        -3.524341         1.281107        -2.765031
 H        -5.145645         0.303867        -2.730835
