19
Iteration:  1034
 C         1.457930        -0.211660        -0.071232
 C         0.070659         0.180708         0.260056
 C        -1.175804         0.072692         0.231221
 C        -2.587408         0.041067        -0.084873
 O        -3.320435        -0.289569         1.085046
 C        -3.084658         1.432634        -0.682064
 C        -4.546539         1.641570        -0.364861
 C        -5.392902         1.075492        -1.380025
 O        -5.113210         2.541340        -1.293440
 H         2.148092        -0.472088         0.789774
 H         1.394022        -1.117932        -0.706332
 H         1.983812         0.530445        -0.722053
 H        -2.754385        -0.862039        -0.752284
 H        -2.845291         0.124988         1.842325
 H        -2.434939         2.138074        -0.204185
 H        -2.849898         1.439276        -1.761681
 H        -5.043552         1.581104         0.615235
 H        -5.108842         0.694816        -2.384364
 H        -6.447300         0.725358        -1.018027
