19
Iteration:    56charge 0 multiplicity 1
 C         1.604677        -0.164283         0.158495
 C         0.150155         0.202940         0.111850
 C        -1.064286         0.144059        -0.038649
 C        -2.526542        -0.047265        -0.256757
 O        -3.164466        -0.790299         0.995573
 C        -3.222365         1.367368        -0.521024
 C        -4.650525         1.593794        -0.286476
 C        -5.569020         1.460705        -1.363246
 O        -5.168293         2.784796        -1.148564
 H         1.670822        -1.167711         0.582746
 H         1.988315        -0.266778        -0.855194
 H         2.244646         0.542486         0.694365
 H        -2.727652        -0.690095        -1.080623
 H        -4.103708        -0.909978         0.818690
 H        -2.660434         2.031946         0.110865
 H        -2.986848         1.581493        -1.547372
 H        -4.988850         1.571272         0.704822
 H        -5.154734         0.937076        -2.208885
 H        -6.612662         1.365596        -1.160824
