19
Iteration:   833
 C         1.505363        -0.062769         0.162693
 C         0.079856        -0.171702         0.390974
 C        -1.032375         0.048387        -0.021580
 C        -2.489786         0.004377        -0.183204
 O        -3.110640        -0.230112         1.022814
 C        -3.128213         1.347675        -0.719788
 C        -4.511204         1.527917        -0.506378
 C        -5.675034         1.261184        -1.303954
 O        -5.288700         2.669247        -1.176648
 H         1.820693         0.964724         0.134433
 H         2.114312        -0.608015         0.888800
 H         1.667817        -0.433935        -0.850779
 H        -2.735903        -0.762173        -1.019135
 H        -2.751359        -1.003772         1.431747
 H        -2.627863         2.204888        -0.289057
 H        -3.038867         1.421781        -1.779072
 H        -4.903883         1.556087         0.595104
 H        -5.454648         0.810301        -2.351335
 H        -6.680421         0.963950        -0.862348
