19
Iteration:  3691charge 0 multiplicity 1
 C         1.433618        -0.046769         0.016979
 C        -0.037464        -0.182795         0.042514
 C        -1.239142        -0.049172         0.125537
 C        -2.668614         0.022012         0.101663
 O        -3.064152         0.038277         1.454828
 C        -3.063901         1.437793        -0.460815
 C        -4.588464         1.835821        -0.487774
 C        -5.472970         1.042575        -1.385083
 O        -5.071654         2.303969        -1.796573
 H         1.907261        -1.063915        -0.064154
 H         1.703492         0.527301        -0.928865
 H         1.782605         0.502682         0.882014
 H        -3.081424        -0.751102        -0.549189
 H        -2.716774        -0.732042         1.886106
 H        -2.707199         2.123440         0.303885
 H        -2.588498         1.424650        -1.448589
 H        -5.066004         2.264155         0.373780
 H        -4.899344         0.300484        -1.950849
 H        -6.513249         0.812161        -1.222834
