19
Iteration:    45charge 0 multiplicity 1
 C         1.529467        -0.191558         0.129626
 C         0.109210         0.287863         0.054196
 C        -1.093443         0.180519        -0.070074
 C        -2.554798        -0.092300        -0.171260
 O        -3.177716        -0.691031         0.993082
 C        -3.116741         1.339555        -0.454802
 C        -4.684557         1.503586        -0.260418
 C        -5.592293         1.440682        -1.461820
 O        -5.064491         2.784639        -1.091313
 H         1.585078        -1.143996         0.666402
 H         1.917731        -0.316009        -0.876330
 H         2.216470         0.487592         0.645801
 H        -2.615924        -0.786027        -0.982258
 H        -3.778446        -1.249378         0.487648
 H        -2.648963         2.069973         0.180016
 H        -2.968682         1.699233        -1.454003
 H        -5.108382         1.468507         0.712943
 H        -5.230974         1.041783        -2.390547
 H        -6.643869         1.210573        -1.338622
