19
Iteration:  1301
 C         1.029594        -0.166328        -0.936254
 C        -0.251089        -0.073723        -0.305040
 C        -1.300049         0.022064         0.399468
 C        -2.763733         0.210928         0.726041
 O        -3.066458        -0.027171         2.094346
 C        -3.439654         1.498154         0.210973
 C        -4.375663         1.227352        -0.884143
 C        -4.396434         1.518061        -2.343128
 O        -5.181534         2.242571        -1.400014
 H         1.196165        -1.151708        -1.473587
 H         1.111273         0.561720        -1.821277
 H         1.912579        -0.112951        -0.209070
 H        -3.373479        -0.645688         0.294835
 H        -2.601378        -0.730988         2.520198
 H        -3.880444         1.884445         1.166891
 H        -2.835498         2.356369        -0.177855
 H        -5.061751         0.366439        -0.742161
 H        -3.515222         1.981054        -2.821896
 H        -5.017769         0.802913        -2.970592
