19
Iteration:  2503charge 0 multiplicity 1
 C         1.466254         0.125302        -0.277085
 C        -0.005978         0.017492        -0.111023
 C        -1.240479        -0.136727         0.161202
 C        -2.693511         0.043320         0.318325
 O        -3.172662        -0.413757         1.590106
 C        -3.191594         1.470956        -0.178324
 C        -4.667142         1.434777        -0.557710
 C        -5.227922         1.246093        -1.984928
 O        -5.054664         2.572945        -1.377156
 H         1.811120        -0.670031        -1.024419
 H         1.705372         1.148387        -0.614420
 H         2.118834         0.089019         0.671854
 H        -3.182112        -0.630128        -0.511385
 H        -2.549973        -0.162830         2.271235
 H        -2.913795         2.323727         0.431504
 H        -2.588820         1.536133        -1.054922
 H        -5.314741         1.066612         0.279305
 H        -4.503750         1.032321        -2.805582
 H        -6.220883         0.891254        -2.224854
