19
Iteration:  3740
 C         1.435105        -0.078244        -0.257691
 C        -0.020024        -0.097469        -0.055070
 C        -1.173958        -0.048210         0.245405
 C        -2.642597         0.013057         0.287876
 O        -3.253146         0.218854         1.673997
 C        -3.068951         1.369365        -0.404519
 C        -4.624530         1.500811        -0.538934
 C        -5.352125         1.024208        -1.758749
 O        -4.994845         2.445779        -1.615536
 H         1.776107        -1.065939        -0.473132
 H         1.707460         0.586730        -1.041269
 H         1.816052         0.297409         0.721248
 H        -3.072744        -0.883376        -0.253532
 H        -2.956736        -0.653938         2.072746
 H        -2.795357         2.231514         0.342070
 H        -2.600873         1.275699        -1.407879
 H        -5.189655         1.698987         0.408038
 H        -4.908756         0.406438        -2.601016
 H        -6.436231         0.876749        -1.658602
