19
Iteration:  4838charge 0 multiplicity 1
 C         0.894082        -0.286776        -0.730902
 C        -0.442281        -0.078737        -0.434309
 C        -1.534599         0.059763         0.134923
 C        -2.896723         0.262707         0.770722
 O        -2.814948         0.092219         2.223165
 C        -3.462075         1.579317         0.206274
 C        -4.651197         1.343576        -0.717444
 C        -4.194390         1.077537        -2.094133
 O        -4.877826         2.359995        -1.843010
 H         1.611897         0.560277        -0.493913
 H         1.355252        -1.194541        -0.248066
 H         1.133463        -0.479899        -1.778343
 H        -3.535468        -0.620290         0.294306
 H        -1.867145        -0.331944         2.302423
 H        -3.814106         2.134155         1.075573
 H        -2.748135         2.262082        -0.364805
 H        -5.635897         0.967883        -0.425748
 H        -3.190026         1.109214        -1.993795
 H        -4.773000         0.471676        -2.799257
