19
Iteration:   634
 C         1.332583        -0.175571        -0.455519
 C        -0.045587         0.151990         0.076799
 C        -1.241578         0.088022         0.094346
 C        -2.653918        -0.121493         0.320581
 O        -2.979171        -0.231818         1.639720
 C        -3.309630         1.354666        -0.060863
 C        -4.735491         1.372813        -0.596306
 C        -4.973354         1.429302        -2.114067
 O        -5.178404         2.622233        -1.293853
 H         1.459484         0.372940        -1.365511
 H         2.119824         0.034548         0.217740
 H         1.357875        -1.230052        -0.608952
 H        -2.923958        -0.960129        -0.332977
 H        -2.501548        -1.011746         2.000476
 H        -3.154637         1.802189         0.831208
 H        -2.800730         1.871884        -0.814899
 H        -5.542648         0.987509        -0.031461
 H        -4.141189         1.452280        -2.832930
 H        -5.824743         0.843987        -2.497244
