19
Iteration:  2050
 C         1.322884         0.093380        -0.536199
 C        -0.028233         0.021635         0.073225
 C        -1.176577        -0.059364         0.323309
 C        -2.720789        -0.034642         0.438898
 O        -3.062992        -0.025394         1.832164
 C        -3.158583         1.355260        -0.336159
 C        -4.751001         1.416774        -0.591941
 C        -5.170867         1.062795        -2.026232
 O        -4.981772         2.473637        -1.514561
 H         2.151989        -0.061544         0.237113
 H         1.518901        -0.897298        -1.117139
 H         1.442296         0.974281        -1.263248
 H        -2.979044        -0.985553        -0.091396
 H        -3.822783         0.529908         2.009146
 H        -2.858227         2.160926         0.298379
 H        -2.527419         1.522723        -1.275561
 H        -5.420146         1.268554         0.299406
 H        -4.373150         0.951627        -2.750389
 H        -6.205832         0.688094        -2.284672
