19
Iteration:  2908charge 0 multiplicity 1
 C        -0.028540         0.437207        -1.624693
 C        -0.895146         0.259472        -0.500804
 C        -1.755038         0.066713         0.387283
 C        -2.973521        -0.106887         1.162400
 O        -2.690994         0.057977         2.613434
 C        -4.042326         0.882883         0.502420
 C        -3.869226         0.891423        -1.124544
 C        -3.090124         1.819779        -2.017054
 O        -4.541240         1.993330        -1.833699
 H        -0.421059         1.186542        -2.394105
 H         0.947737         0.814206        -1.354576
 H        -0.104513        -0.475107        -2.259162
 H        -3.407560        -1.161570         1.111522
 H        -3.202139         0.854926         2.739679
 H        -5.039192         0.652323         0.840994
 H        -3.745979         1.951622         0.727458
 H        -4.219712        -0.041034        -1.591813
 H        -2.404452         2.452102        -1.452781
 H        -2.806532         1.514527        -2.969444
