19
Iteration:   114
 C         1.549501         0.038448         0.360994
 C         0.107848        -0.267553         0.099520
 C        -1.072144        -0.080799        -0.174703
 C        -2.554282         0.003587        -0.356143
 O        -3.331155        -0.463637         0.750284
 C        -2.957100         1.508531        -0.516353
 C        -4.524083         1.756640        -0.322994
 C        -5.664291         1.212105        -1.136247
 O        -5.217531         2.658926        -1.136097
 H         2.191288        -0.808335         0.662079
 H         1.967779         0.433220        -0.571619
 H         1.621895         0.840377         1.101132
 H        -2.782858        -0.582389        -1.274867
 H        -2.680469        -0.963512         1.334974
 H        -2.553077         2.243256         0.210115
 H        -2.728900         1.754918        -1.560634
 H        -4.743722         1.746696         0.793431
 H        -5.510945         0.637658        -2.009085
 H        -6.631133         1.110046        -0.717228
