19
Iteration:  1992
 C         1.124987         0.193290        -0.762312
 C        -0.244495        -0.033843        -0.200431
 C        -1.256586        -0.227141         0.383967
 C        -2.727528         0.037354         0.676299
 O        -3.166174         0.091062         2.032740
 C        -3.134342         1.310040        -0.089807
 C        -4.570036         1.178699        -0.734841
 C        -4.779818         1.211075        -2.233534
 O        -5.027234         2.425867        -1.500896
 H         1.726091         0.713865         0.049090
 H         1.602667        -0.706931        -1.308858
 H         0.961629         1.078025        -1.516797
 H        -3.297834        -0.785517         0.245543
 H        -2.649833         0.753864         2.541397
 H        -3.102307         2.105656         0.664149
 H        -2.371203         1.417732        -0.793722
 H        -5.313336         0.747027        -0.014424
 H        -3.884927         1.367265        -2.883759
 H        -5.521054         0.591185        -2.680607
