19
Iteration:  4977
 C         0.530679         0.020722        -1.048836
 C        -0.753724         0.147554        -0.512656
 C        -1.871226         0.043823         0.017758
 C        -3.011265         0.171700         0.914390
 O        -2.657682         0.051094         2.264766
 C        -3.765496         1.495053         0.558916
 C        -4.614676         1.507286        -0.836790
 C        -4.021210         0.723682        -1.990235
 O        -3.911382         2.163248        -1.878563
 H         1.195537         0.662874        -0.531740
 H         0.834854        -1.062983        -1.037403
 H         0.405389         0.346699        -2.057490
 H        -3.792185        -0.565974         0.618582
 H        -2.299480         0.933968         2.352887
 H        -4.561875         1.698669         1.341462
 H        -3.080264         2.335825         0.497113
 H        -5.672268         1.812420        -0.786517
 H        -3.109054         0.322310        -1.722060
 H        -4.686408         0.354235        -2.814188
