19
Iteration:  1747
 C         0.629329        -0.007891        -1.177552
 C        -0.525369        -0.016385        -0.362844
 C        -1.623950        -0.178598         0.204109
 C        -2.982449         0.007445         0.975187
 O        -2.712029         0.534536         2.312069
 C        -3.819075         1.048436         0.295680
 C        -4.334475         0.920078        -1.094849
 C        -3.668167         1.761366        -2.175131
 O        -4.924407         2.132183        -1.505735
 H         0.996961         1.034363        -1.433651
 H         1.476206        -0.384301        -0.543247
 H         0.372378        -0.624132        -2.074586
 H        -3.475935        -1.040807         1.051549
 H        -1.737820         0.334623         2.472287
 H        -4.627386         1.198235         0.986249
 H        -3.411460         2.075894         0.379876
 H        -4.933836         0.075392        -1.423480
 H        -2.842348         2.385090        -1.786684
 H        -3.733627         1.459076        -3.217945
