19
Iteration:  3723
 C         1.491041        -0.041255        -0.138235
 C         0.009296        -0.196192        -0.078898
 C        -1.183493        -0.127876         0.095693
 C        -2.689807         0.206339         0.320463
 O        -3.277795         0.133599         1.599299
 C        -3.108445         1.424751        -0.367711
 C        -4.593875         1.526059        -0.590257
 C        -5.491904         1.070350        -1.608343
 O        -4.908854         2.324048        -1.655360
 H         2.166470        -0.915061        -0.349171
 H         1.934631         0.638841        -1.022437
 H         2.066206         0.408123         0.668552
 H        -3.201307        -0.561106        -0.259404
 H        -3.039516        -0.574466         2.243769
 H        -2.806044         2.275239         0.152265
 H        -2.620683         1.573633        -1.337014
 H        -5.089263         1.678846         0.338650
 H        -5.074057         0.506272        -2.463668
 H        -6.539673         0.896585        -1.408161
