19
Iteration:  4124
 C         0.943095        -0.093524        -0.905520
 C        -0.383058         0.011026        -0.292727
 C        -1.406299         0.082111         0.358237
 C        -2.776040         0.134398         0.838782
 O        -2.874854         0.281020         2.296705
 C        -3.341382         1.466256         0.160931
 C        -4.613050         1.288894        -0.804578
 C        -4.436017         0.892752        -2.255114
 O        -4.968453         2.325906        -1.841063
 H         0.855081        -0.127200        -1.991372
 H         1.540589         0.855631        -0.721411
 H         1.569214        -1.009874        -0.518513
 H        -3.269216        -0.860251         0.718151
 H        -2.356760        -0.427415         2.601847
 H        -3.886997         2.028599         0.903097
 H        -2.623553         1.959599        -0.386145
 H        -5.561914         0.964359        -0.395747
 H        -3.404386         0.774904        -2.606906
 H        -5.205907         0.355437        -2.814358
