19
Iteration:  4368charge 0 multiplicity 1
 C         0.442729        -0.250827        -1.256676
 C        -0.713441         0.010188        -0.469930
 C        -1.697781        -0.018045         0.219731
 C        -2.803068         0.120392         1.061805
 O        -2.702376         0.732185         2.467926
 C        -3.857076         1.201277         0.352267
 C        -4.263386         0.941472        -0.989155
 C        -3.550416         1.497153        -2.101498
 O        -4.856596         1.993622        -1.789812
 H         0.560706         0.280512        -2.247534
 H         1.445485        -0.153286        -0.727057
 H         0.427531        -1.321383        -1.526802
 H        -3.261956        -0.859208         1.211279
 H        -1.980417         1.415978         2.554216
 H        -4.664904         1.286591         1.062104
 H        -3.325760         2.189552         0.523115
 H        -4.739094         0.016549        -1.217822
 H        -2.739254         2.182296        -1.909373
 H        -3.459332         0.929262        -3.087046
