19
Iteration:  3179charge 0 multiplicity 1
 C         1.268005        -0.082555        -0.362691
 C        -0.237796        -0.041351        -0.381754
 C        -1.309644         0.024414         0.147682
 C        -2.813966         0.096700         0.487614
 O        -2.810026         0.026675         1.892769
 C        -3.411728         1.381695         0.037388
 C        -4.574744         1.128029        -0.846799
 C        -4.559461         1.551435        -2.241205
 O        -5.325084         2.294083        -1.271348
 H         1.716875         0.688724         0.273123
 H         1.780480        -0.936808        -0.173810
 H         1.715868         0.081257        -1.304642
 H        -3.297527        -0.800119         0.029190
 H        -3.740358        -0.292882         2.124828
 H        -3.683885         1.859134         1.059656
 H        -2.560057         1.957183        -0.376000
 H        -5.291423         0.370727        -0.761051
 H        -3.582432         1.805899        -2.689589
 H        -5.219146         1.028874        -2.929022
