19
Iteration:  3486
 C         1.554722        -0.311087         0.646505
 C         0.123390        -0.158607         0.129881
 C        -0.968495         0.184692        -0.153312
 C        -2.511220         0.151299        -0.303208
 O        -3.124573        -0.030636         1.003196
 C        -2.981294         1.584300        -0.849277
 C        -4.486934         1.859303        -0.565050
 C        -5.686197         0.946392        -0.846827
 O        -5.491616         2.231039        -1.497452
 H         1.569731        -1.165728         1.503226
 H         2.072211        -0.653610        -0.242540
 H         2.039129         0.708513         0.894673
 H        -2.699296        -0.631686        -1.059677
 H        -4.002774        -0.346877         1.007264
 H        -2.367398         2.238163        -0.352630
 H        -2.769260         1.735035        -1.905467
 H        -4.549125         2.348310         0.434264
 H        -5.464021         0.183431        -1.673778
 H        -6.496802         0.898380        -0.162576
