19
Iteration:  1001
 C         1.582471        -0.124745         0.225412
 C         0.143152        -0.038747        -0.053162
 C        -1.087997         0.062566         0.015362
 C        -2.605778         0.077036        -0.037362
 O        -3.318445        -0.342215         1.092659
 C        -3.036486         1.396464        -0.670959
 C        -4.529811         1.631358        -0.441171
 C        -5.608500         1.177644        -1.276852
 O        -5.178578         2.569564        -1.319345
 H         1.821233         0.107073         1.297023
 H         1.920587        -1.150445        -0.019525
 H         2.147842         0.600642        -0.407130
 H        -2.764582        -0.831178        -0.671602
 H        -3.027787        -0.025930         1.933353
 H        -2.393508         2.169471        -0.272585
 H        -2.951323         1.433891        -1.739408
 H        -4.981973         1.758022         0.528214
 H        -5.539635         0.709688        -2.267841
 H        -6.562683         1.005282        -0.640617
