19
Iteration:  3929charge 0 multiplicity 1
 C         1.382667        -0.412037        -0.239590
 C        -0.132393        -0.269820        -0.194061
 C        -1.261754         0.168318         0.021940
 C        -2.630189         0.241095         0.582906
 O        -2.728436         0.334881         2.031724
 C        -3.418692         1.475257        -0.132118
 C        -4.742691         1.109870        -0.827286
 C        -4.873480         1.381648        -2.313829
 O        -5.443079         2.251769        -1.462447
 H         1.599758        -1.087686        -0.980983
 H         1.667505         0.593290        -0.534583
 H         1.702241        -0.640900         0.737936
 H        -2.986116        -0.729452         0.248982
 H        -1.931109         0.594327         2.439714
 H        -3.569283         2.060160         0.834950
 H        -2.779423         2.167656        -0.901906
 H        -5.436520         0.353846        -0.488343
 H        -3.995201         1.788365        -2.814014
 H        -5.412354         0.779641        -3.149249
