19
Iteration:  2424charge 0 multiplicity 1
 C         1.492565         0.218486         0.137962
 C         0.056312        -0.011211        -0.062988
 C        -1.124130        -0.186182         0.036997
 C        -2.621667         0.022835         0.015620
 O        -3.323040        -0.415548         1.206518
 C        -2.969630         1.393265        -0.567785
 C        -4.478316         1.696985        -0.404019
 C        -5.669927         1.198408        -1.358559
 O        -5.056794         2.423091        -1.477183
 H         2.272016        -0.596075        -0.002007
 H         2.010781         1.000723        -0.461132
 H         1.527861         0.557084         1.206401
 H        -3.224959        -0.679432        -0.706478
 H        -3.024242         0.035839         2.002482
 H        -2.276225         2.084685        -0.081126
 H        -2.572569         1.256892        -1.608291
 H        -4.743573         2.205444         0.557066
 H        -5.486462         0.454210        -2.079924
 H        -6.626940         1.146751        -0.817510
