19
Iteration:  3700charge 0 multiplicity 1
 C         1.406599        -0.048936        -0.038069
 C         0.019655        -0.215104         0.008182
 C        -1.203755        -0.078055         0.103825
 C        -2.652670         0.069573         0.146710
 O        -3.142503         0.053883         1.510202
 C        -3.056123         1.497202        -0.408246
 C        -4.609335         1.708264        -0.520138
 C        -5.501332         1.025420        -1.462874
 O        -5.007839         2.334859        -1.768410
 H         2.070250        -0.908155        -0.076713
 H         1.848795         0.622201        -0.905426
 H         1.793501         0.486850         0.842399
 H        -3.144952        -0.765482        -0.340523
 H        -2.846504        -0.637045         2.084065
 H        -2.522628         2.128988         0.177995
 H        -2.818353         1.764959        -1.441776
 H        -5.087047         2.022615         0.364467
 H        -5.167088         0.072478        -1.984399
 H        -6.550728         1.087073        -1.291579
