19
Iteration:  4617charge 0 multiplicity 1
 C         0.754837        -0.622107        -0.773598
 C        -0.524929        -0.187789        -0.349217
 C        -1.694048         0.151580         0.052118
 C        -2.903982         0.267153         0.954219
 O        -2.483230         0.549792         2.276719
 C        -3.815164         1.391427         0.243306
 C        -4.069591         1.063641        -1.141621
 C        -4.008234         2.098841        -2.256481
 O        -5.280197         1.687911        -1.582547
 H         1.371762         0.219656        -1.031741
 H         1.322504        -1.105836         0.133810
 H         0.780972        -1.348583        -1.629709
 H        -3.370754        -0.721343         1.017472
 H        -1.551399         0.171636         2.345357
 H        -4.673492         1.521737         0.846136
 H        -3.156726         2.226635         0.331636
 H        -3.941841        -0.049723        -1.247117
 H        -3.639316         3.149176        -2.141759
 H        -3.794059         1.773200        -3.197441
