19
Iteration:   710
 C         1.408079        -0.107204        -0.057348
 C        -0.024852        -0.240056        -0.076549
 C        -1.198433        -0.073573        -0.138127
 C        -2.661357         0.101802         0.034948
 O        -2.926863        -0.285531         1.404141
 C        -3.223937         1.653818        -0.006031
 C        -4.658510         1.566407        -0.411416
 C        -5.066775         1.229256        -1.822404
 O        -5.407230         2.583343        -1.366015
 H         1.685463         0.699737        -0.703002
 H         1.640570         0.178628         0.933257
 H         1.939886        -0.958843        -0.400728
 H        -3.077378        -0.435343        -0.838035
 H        -2.638669        -1.184111         1.524759
 H        -3.066116         2.108780         0.902073
 H        -2.548435         2.020075        -0.759760
 H        -5.265397         1.133336         0.328211
 H        -4.285929         1.130892        -2.567958
 H        -5.931765         0.574103        -2.044036
