19
Iteration:  2176
 C         1.460972        -0.254018         0.455264
 C         0.115873        -0.145677         0.034990
 C        -1.113972         0.094477        -0.147156
 C        -2.518780         0.267948        -0.146087
 O        -3.043240        -0.096864         1.085030
 C        -3.001971         1.647212        -0.753573
 C        -4.531327         1.753499        -0.449387
 C        -5.644722         0.864035        -1.156855
 O        -5.395046         2.258049        -1.422650
 H         1.487283        -0.784302         1.374927
 H         2.010642        -0.735504        -0.292198
 H         2.053438         0.610026         0.657285
 H        -2.928778        -0.541134        -0.883320
 H        -3.042451         0.579744         1.744491
 H        -2.553584         2.545146        -0.162741
 H        -2.750121         1.847629        -1.789999
 H        -4.613384         2.181646         0.584711
 H        -5.327015         0.168547        -1.979078
 H        -6.516125         0.408013        -0.658053
