19
Iteration:  4644charge 0 multiplicity 1
 C         0.898293        -0.584493        -0.681177
 C        -0.454626        -0.220022        -0.355659
 C        -1.641929        -0.074401         0.097351
 C        -2.841526         0.255312         0.810545
 O        -2.499320         0.562573         2.186490
 C        -3.759939         1.459518         0.348326
 C        -4.223485         1.130061        -1.001968
 C        -4.109567         2.021965        -2.281662
 O        -5.352522         1.816506        -1.686905
 H         1.538420         0.341366        -0.829683
 H         1.318967        -1.089203         0.130067
 H         0.840042        -1.273580        -1.508978
 H        -3.447325        -0.685506         0.852681
 H        -1.628688         0.160532         2.381615
 H        -4.496384         1.184133         1.164549
 H        -3.175590         2.403039         0.523878
 H        -4.265294         0.048803        -1.055967
 H        -3.642168         3.014919        -2.265015
 H        -3.820063         1.570941        -3.344741
