19
Iteration:   584charge 0 multiplicity 1
 C         1.266161        -0.006492        -0.607387
 C        -0.047367        -0.204060        -0.160863
 C        -1.121874         0.006753         0.406383
 C        -2.618619         0.125556         0.454035
 O        -3.235105        -0.254339         1.725753
 C        -3.211625         1.384636        -0.076573
 C        -4.544989         1.256853        -0.722898
 C        -4.969900         1.487528        -2.156956
 O        -5.208991         2.538591        -1.251598
 H         1.166240         0.618033        -1.542621
 H         1.862561         0.585093         0.166144
 H         1.859761        -0.965907        -0.686293
 H        -2.903539        -0.582548        -0.378403
 H        -2.473102        -0.721331         2.181682
 H        -3.411700         2.145300         0.822532
 H        -2.600129         1.965975        -0.862748
 H        -5.393198         0.771423        -0.174286
 H        -4.164417         1.642344        -2.876666
 H        -5.860057         0.973533        -2.580326
