19
Iteration:  2175charge 0 multiplicity 1
 C         1.461694        -0.249225         0.448284
 C         0.111745        -0.144621         0.039362
 C        -1.117970         0.085215        -0.135557
 C        -2.513659         0.267744        -0.146019
 O        -3.039147        -0.096115         1.087328
 C        -2.999530         1.644584        -0.747330
 C        -4.534737         1.749752        -0.447266
 C        -5.645106         0.874861        -1.158818
 O        -5.399452         2.252112        -1.429326
 H         1.478393        -0.813774         1.366641
 H         2.021830        -0.740338        -0.304360
 H         2.053596         0.635944         0.606989
 H        -2.944389        -0.519010        -0.881996
 H        -2.998993         0.595430         1.727563
 H        -2.554083         2.530601        -0.149382
 H        -2.714734         1.864663        -1.777948
 H        -4.641724         2.155817         0.579991
 H        -5.307448         0.203337        -2.006296
 H        -6.524220         0.439563        -0.679922
