19
Iteration:  1185
 C         1.253892        -0.144258        -0.237771
 C        -0.189074        -0.073768        -0.234832
 C        -1.410933        -0.046284        -0.081882
 C        -2.745680         0.086779         0.381021
 O        -2.671067        -0.235868         1.828903
 C        -3.358050         1.523012         0.090975
 C        -4.768931         1.487501        -0.552105
 C        -4.938465         1.205174        -2.088760
 O        -5.082250         2.555418        -1.609902
 H         1.576355        -1.091964         0.132879
 H         1.746365        -0.055265        -1.174353
 H         1.634477         0.588104         0.436695
 H        -3.466791        -0.660764        -0.134809
 H        -1.710822        -0.153810         1.946562
 H        -3.453127         2.207147         0.978565
 H        -2.816067         2.127653        -0.622249
 H        -5.645854         1.337122         0.112377
 H        -4.104316         1.129387        -2.776242
 H        -5.810773         0.594350        -2.459298
