19
Iteration:  3137charge 0 multiplicity 1
 C         1.218085        -0.216469        -0.414119
 C        -0.234568         0.096667        -0.175126
 C        -1.437580         0.145832        -0.072970
 C        -2.822470         0.160430         0.554261
 O        -2.577636        -0.141646         1.965373
 C        -3.624192         1.357798         0.205941
 C        -4.619778         1.120670        -0.895673
 C        -4.408706         1.566779        -2.316549
 O        -5.335927         2.280838        -1.425881
 H         1.913663         0.615241        -0.101812
 H         1.475782        -1.207494        -0.047489
 H         1.421309        -0.156200        -1.549811
 H        -3.330656        -0.779830         0.225135
 H        -2.760639         0.678462         2.559136
 H        -4.309249         1.683995         1.136968
 H        -3.052940         2.317468        -0.032982
 H        -5.168197         0.211173        -0.623053
 H        -3.586307         2.222288        -2.437469
 H        -4.826904         0.993403        -3.117994
