19
Iteration:  4011charge 0 multiplicity 1
 C         1.164814        -0.389383        -0.407542
 C        -0.241132        -0.060694        -0.215786
 C        -1.345966         0.195099         0.138141
 C        -2.733088         0.306436         0.635031
 O        -2.607273         0.314693         1.997751
 C        -3.451463         1.591599         0.045112
 C        -4.568619         1.174087        -0.862832
 C        -4.694306         1.166652        -2.311481
 O        -5.341221         2.170548        -1.536489
 H         1.425197        -1.039653        -1.324773
 H         1.852225         0.438283        -0.340458
 H         1.354493        -0.996615         0.521312
 H        -3.324221        -0.475259         0.089539
 H        -2.741602        -0.687152         2.097728
 H        -3.807773         2.130189         0.911408
 H        -2.790568         2.120872        -0.508966
 H        -5.217458         0.448248        -0.211331
 H        -3.767505         1.560144        -2.776116
 H        -5.360864         0.540624        -2.813167
