19
Iteration:  3754charge 0 multiplicity 1
 C         1.365376        -0.121069        -0.313440
 C        -0.074559        -0.002654         0.007239
 C        -1.207429        -0.013318         0.370349
 C        -2.661350         0.022041         0.331908
 O        -3.140118         0.195684         1.651212
 C        -3.144191         1.239500        -0.448977
 C        -4.578717         1.541568        -0.572521
 C        -5.235655         1.047517        -1.814789
 O        -5.080279         2.475501        -1.578463
 H         1.555645        -1.156123        -0.619255
 H         1.570562         0.630023        -1.218652
 H         2.002807         0.124578         0.561771
 H        -3.064028        -0.952918        -0.095938
 H        -2.975137        -0.557511         2.250024
 H        -2.620564         1.979960         0.058541
 H        -2.668043         1.384904        -1.447307
 H        -5.195440         1.534949         0.292143
 H        -4.413750         0.710730        -2.548830
 H        -6.224981         0.609377        -1.844562
