19
Iteration:   714
 C         1.414168        -0.112956        -0.049587
 C        -0.013219        -0.227747        -0.008920
 C        -1.230295        -0.113725        -0.161835
 C        -2.665488         0.149429         0.030488
 O        -2.930429        -0.289407         1.378095
 C        -3.205362         1.632619        -0.001054
 C        -4.655720         1.582639        -0.412340
 C        -5.087478         1.222385        -1.828100
 O        -5.410519         2.571093        -1.366476
 H         1.787200         0.693039        -0.729385
 H         1.837324         0.221645         0.945094
 H         2.007158        -0.939628        -0.531302
 H        -3.108877        -0.475505        -0.804013
 H        -2.573655        -1.221505         1.401942
 H        -2.897532         2.161263         0.967683
 H        -2.761809         2.128763        -0.904172
 H        -5.234482         1.158704         0.459360
 H        -4.249539         1.147277        -2.570666
 H        -6.034927         0.623041        -1.982113
