19
Iteration:  2090
 C         1.462160        -0.095320        -0.190028
 C        -0.020561         0.071948        -0.157958
 C        -1.202035         0.126386         0.222423
 C        -2.586015         0.051260         0.281547
 O        -3.087060        -0.055562         1.685971
 C        -3.054646         1.389903        -0.420396
 C        -4.650384         1.489598        -0.572925
 C        -5.449388         1.015627        -1.739833
 O        -5.062815         2.426002        -1.544565
 H         1.840014        -0.243913         0.847520
 H         1.732980        -0.985331        -0.800874
 H         1.869481         0.911210        -0.447474
 H        -3.118816        -0.741630        -0.223819
 H        -3.949693        -0.562848         1.582527
 H        -2.670596         2.183700         0.287893
 H        -2.697084         1.552430        -1.407017
 H        -5.209719         1.719499         0.376032
 H        -4.865040         0.481483        -2.514071
 H        -6.508742         0.765594        -1.770843
