19
Iteration:   787charge 0 multiplicity 1
 C         1.574163        -0.242967         0.075829
 C         0.164762         0.149469        -0.088862
 C        -1.012724         0.105905         0.167908
 C        -2.483186         0.156178         0.008983
 O        -3.394768        -0.378232         1.091182
 C        -3.078350         1.392692        -0.561225
 C        -4.701778         1.499510        -0.380880
 C        -5.525028         1.201921        -1.504287
 O        -5.189435         2.626165        -1.209759
 H         2.261848         0.564902        -0.117608
 H         1.710151        -0.530725         1.102019
 H         1.871398        -1.022431        -0.603291
 H        -2.511262        -0.486949        -0.866586
 H        -2.810588        -0.957544         1.652947
 H        -2.700061         2.213569        -0.025256
 H        -2.742575         1.508393        -1.610333
 H        -5.215259         1.439892         0.593539
 H        -5.263065         0.904885        -2.495222
 H        -6.511485         0.849022        -1.084429
