19
Iteration:  3834charge 0 multiplicity 1
 C         1.363701        -0.221572        -0.469812
 C        -0.061433        -0.247478        -0.127400
 C        -1.161691         0.058542         0.383889
 C        -2.576591         0.175875         0.585452
 O        -3.107106         0.327489         1.882971
 C        -3.223124         1.363740        -0.326169
 C        -4.690939         1.158969        -0.801987
 C        -4.957058         1.241695        -2.224278
 O        -5.276153         2.396744        -1.346902
 H         1.564772        -1.146601        -1.144349
 H         1.486516         0.811673        -1.021439
 H         1.790206        -0.234801         0.550171
 H        -3.153954        -0.708971         0.164653
 H        -2.560474         0.523723         2.695316
 H        -3.242219         2.179657         0.350156
 H        -2.613200         1.500426        -1.212776
 H        -5.449438         0.550551        -0.206200
 H        -4.146706         1.403348        -2.917987
 H        -5.856684         0.777259        -2.788502
