19
Iteration:  2244
 C         1.397124        -0.377299         0.720459
 C         0.058493         0.062011         0.282843
 C        -0.970920         0.169017        -0.300539
 C        -2.442582         0.296324        -0.420254
 O        -3.038589        -0.082709         0.874542
 C        -3.060803         1.627118        -1.065319
 C        -4.433560         1.625606        -0.502894
 C        -5.644924         0.989303        -0.730103
 O        -5.530408         2.220596        -1.351280
 H         1.211783        -1.260518         1.315596
 H         1.940919        -0.577785        -0.199419
 H         2.067073         0.300150         1.238741
 H        -2.806439        -0.595688        -1.069347
 H        -2.328831        -0.535833         1.364570
 H        -2.357495         2.453173        -0.714964
 H        -2.998371         1.685604        -2.171880
 H        -4.469751         2.261022         0.397627
 H        -5.713276         0.065859        -1.303953
 H        -6.280452         0.892224         0.195694
