19
Iteration:   330charge 0 multiplicity 1
 C         1.518366        -0.167384         0.033625
 C         0.076676        -0.096338         0.117506
 C        -1.137411         0.009971         0.097046
 C        -2.531510         0.173157        -0.249492
 O        -3.276150        -0.256389         1.035132
 C        -3.028437         1.667968        -0.375909
 C        -4.555673         1.555763        -0.387328
 C        -5.535322         1.043342        -1.407342
 O        -5.210919         2.526212        -1.229949
 H         1.754867        -0.811154        -0.834158
 H         2.065417         0.768926        -0.085910
 H         1.890526        -0.658879         0.946597
 H        -2.892984        -0.437786        -1.098768
 H        -2.737507        -0.970260         1.419252
 H        -2.511883         2.225858         0.415640
 H        -2.822176         2.023553        -1.353143
 H        -4.996610         1.560732         0.530482
 H        -5.113792         0.676996        -2.312923
 H        -6.525543         0.665907        -1.189506
