19
Iteration:   491charge 0 multiplicity 1
 C         1.339412         0.055411        -0.428458
 C        -0.031672        -0.188360        -0.129538
 C        -1.213067        -0.044701         0.139110
 C        -2.630317         0.014749         0.404486
 O        -2.960621        -0.349529         1.753638
 C        -3.291716         1.490061        -0.084569
 C        -4.636248         1.421324        -0.678197
 C        -5.083645         1.380034        -2.082695
 O        -5.165810         2.589027        -1.351123
 H         1.413592         0.320846        -1.485773
 H         1.894900         0.806669         0.109434
 H         1.915699        -0.832498        -0.124218
 H        -3.085968        -0.898513        -0.143032
 H        -3.906088        -0.397240         1.727961
 H        -3.333672         1.981178         0.855263
 H        -2.559627         1.899327        -0.790969
 H        -5.361930         1.169122         0.205268
 H        -4.306424         1.262960        -2.901381
 H        -6.067106         0.904052        -2.298766
