19
Iteration:  2644
 C         1.272647        -0.202271        -0.609649
 C        -0.161270        -0.058614        -0.200250
 C        -1.319919         0.260645         0.033157
 C        -2.701579         0.175881         0.512980
 O        -2.803079        -0.030833         1.996732
 C        -3.692892         1.301559         0.195288
 C        -4.598927         1.063444        -0.984891
 C        -4.299600         1.783168        -2.204015
 O        -5.466093         2.203120        -1.295697
 H         1.341575        -0.547836        -1.667061
 H         1.896136         0.649228        -0.371632
 H         1.862987        -1.029759        -0.166532
 H        -3.068937        -0.787382         0.203438
 H        -2.874563        -0.965662         2.131127
 H        -4.382962         1.239255         1.141491
 H        -3.187572         2.399374         0.286798
 H        -5.125684         0.056178        -0.984611
 H        -3.455302         2.482069        -2.288409
 H        -4.681233         1.460196        -3.132483
