19
Iteration:   959charge 0 multiplicity 1
 C         1.443623         0.012599         0.453917
 C         0.056906        -0.211214         0.154833
 C        -1.096990        -0.191177        -0.326689
 C        -2.548234        -0.082083        -0.281816
 O        -2.943892        -0.282553         1.114843
 C        -3.116069         1.389917        -0.606474
 C        -4.541766         1.723456        -0.372261
 C        -5.689654         1.257045        -1.248601
 O        -5.287908         2.642911        -1.358124
 H         1.550745         0.710414         1.359011
 H         2.080134        -0.913164         0.455782
 H         1.923755         0.566758        -0.422090
 H        -3.149230        -0.858194        -0.951964
 H        -2.281038         0.298938         1.541986
 H        -2.515703         2.243787        -0.164252
 H        -2.901569         1.319219        -1.745160
 H        -4.778381         2.012456         0.594336
 H        -5.663075         0.609834        -2.095050
 H        -6.645937         1.047812        -0.708011
