19
Iteration:  3671charge 0 multiplicity 1
 C         1.413059        -0.113520         0.106086
 C        -0.023943        -0.018026         0.159932
 C        -1.249063        -0.068096        -0.056288
 C        -2.713313         0.074631         0.039688
 O        -3.074810        -0.089156         1.457388
 C        -3.065458         1.481266        -0.553829
 C        -4.495550         1.903678        -0.589322
 C        -5.393698         0.956437        -1.211314
 O        -5.166479         2.330772        -1.788774
 H         1.811504        -1.172266         0.129547
 H         1.855223         0.311079        -0.758906
 H         1.880501         0.436459         0.912234
 H        -3.251388        -0.750758        -0.513838
 H        -2.565332        -0.806126         1.825779
 H        -2.365709         2.232771         0.122035
 H        -2.909564         1.413367        -1.659259
 H        -4.866060         2.480417         0.301991
 H        -4.989987         0.125799        -1.754640
 H        -6.402466         0.864691        -0.796102
