19
Iteration:  4254
 C         0.688922        -0.071093        -1.030057
 C        -0.689273         0.036811        -0.466775
 C        -1.767922         0.200802         0.130081
 C        -2.978843         0.230565         0.786716
 O        -2.652519         0.377645         2.308952
 C        -3.738844         1.420121         0.430177
 C        -4.520636         1.119662        -0.774760
 C        -3.879087         0.878467        -2.092652
 O        -4.543175         2.157167        -1.802722
 H         0.633215         0.296947        -1.994306
 H         1.278526         0.578278        -0.437317
 H         1.099449        -1.089089        -1.017620
 H        -3.542029        -0.700063         0.770694
 H        -1.696082         0.257946         2.467645
 H        -4.280469         2.015745         1.181744
 H        -3.159448         2.215835         0.037980
 H        -5.426251         0.401430        -0.611049
 H        -2.742766         0.986356        -2.192026
 H        -4.385865         0.296827        -2.822586
