19
Iteration:   155
 C         1.271745        -0.045475         0.440175
 C        -0.032320         0.161100        -0.040898
 C        -1.198383        -0.083497        -0.305713
 C        -2.657938         0.042301        -0.421638
 O        -3.233572        -0.477738         0.850211
 C        -2.890333         1.534122        -0.623079
 C        -4.376799         1.756552        -0.218799
 C        -5.335394         1.018716        -1.063839
 O        -5.145533         2.559456        -1.080657
 H         1.425113        -1.113069         0.587419
 H         1.992890         0.353379        -0.247271
 H         1.435380         0.406083         1.421391
 H        -3.181304        -0.445528        -1.200831
 H        -4.210859        -0.415364         0.810553
 H        -2.051930         1.981541        -0.159114
 H        -2.752757         1.769953        -1.620652
 H        -4.668688         1.865993         0.783639
 H        -4.984069         0.510775        -1.906642
 H        -6.296099         0.764487        -0.727773
