19
Iteration:  2379charge 0 multiplicity 1
 C         1.478205         0.162310         0.380646
 C         0.005089        -0.079268         0.187409
 C        -1.144689        -0.135384        -0.119681
 C        -2.617546        -0.013672        -0.223442
 O        -3.232389        -0.307358         1.001926
 C        -3.015803         1.429118        -0.770715
 C        -4.395910         1.816090        -0.422517
 C        -5.550215         1.140915        -0.960420
 O        -5.234902         2.347074        -1.453170
 H         2.029295        -0.805208         0.310736
 H         2.030386         0.664730        -0.461063
 H         1.789085         0.720320         1.280159
 H        -3.030572        -0.842319        -0.960937
 H        -2.647370         0.059785         1.651510
 H        -2.241330         2.178034        -0.507571
 H        -2.972691         1.328567        -1.929870
 H        -4.681747         2.248348         0.534359
 H        -5.369747         0.407887        -1.724572
 H        -6.542256         1.143950        -0.582512
