19
Iteration:   151charge 0 multiplicity 1
 C         1.309975        -0.042759         0.440778
 C        -0.023009         0.160578        -0.034506
 C        -1.197908        -0.119942        -0.293758
 C        -2.675391         0.013942        -0.421985
 O        -3.232760        -0.441408         0.843060
 C        -2.928516         1.533034        -0.606908
 C        -4.396717         1.761576        -0.224095
 C        -5.337047         1.042278        -1.067539
 O        -5.129450         2.550069        -1.081035
 H         1.471547        -1.124437         0.608614
 H         2.056295         0.373421        -0.285254
 H         1.482753         0.443190         1.427303
 H        -3.202893        -0.512994        -1.299392
 H        -4.183171        -0.613916         0.680510
 H        -2.117548         2.150630        -0.093474
 H        -2.793580         1.878774        -1.714210
 H        -4.593174         1.799069         0.871016
 H        -4.960607         0.472386        -2.013945
 H        -6.372265         0.802834        -0.628139
