19
Iteration:  1039
 C         1.452922        -0.206759        -0.134697
 C         0.017950         0.176661         0.314245
 C        -1.183493         0.047235         0.239074
 C        -2.549157         0.072151        -0.051658
 O        -3.312520        -0.291012         1.091878
 C        -3.098437         1.442727        -0.661308
 C        -4.542723         1.644666        -0.344737
 C        -5.393995         1.075735        -1.410789
 O        -5.121673         2.529926        -1.327391
 H         2.098257        -0.543099         0.690031
 H         1.378852        -1.143436        -0.733531
 H         2.002334         0.557011        -0.706510
 H        -2.803632        -0.722475        -0.852843
 H        -2.802748         0.153493         1.807633
 H        -2.491490         2.280403        -0.170753
 H        -2.644303         1.313276        -1.681535
 H        -4.850496         1.339424         0.682686
 H        -5.093411         0.779011        -2.397686
 H        -6.287591         0.735195        -1.007988
