19
Iteration:  4191charge 0 multiplicity 1
 C         0.750599         0.038462        -0.982487
 C        -0.488797        -0.042720        -0.284315
 C        -1.599988         0.009842         0.223795
 C        -2.882023         0.147166         0.812829
 O        -2.744749         0.304750         2.284715
 C        -3.570980         1.582486         0.264441
 C        -4.608107         1.299625        -0.752633
 C        -4.163132         0.833958        -2.083269
 O        -4.705536         2.190804        -1.928285
 H         0.554884         0.259427        -2.042945
 H         1.354286         0.977966        -0.644152
 H         1.499939        -0.851219        -1.025111
 H        -3.519634        -0.704112         0.486058
 H        -2.278886        -0.530659         2.619319
 H        -3.754854         2.070149         1.215845
 H        -2.613718         1.864796        -0.151702
 H        -5.556206         0.992619        -0.319258
 H        -3.007247         0.883802        -2.114780
 H        -4.710989         0.283296        -2.831734
