19
Iteration:  4961charge 0 multiplicity 1
 C         0.626060        -0.038768        -1.039956
 C        -0.700434         0.110761        -0.465641
 C        -1.877098         0.114392        -0.056004
 C        -3.026110         0.157466         0.802260
 O        -2.734627         0.134144         2.275181
 C        -3.802189         1.448978         0.559364
 C        -4.482955         1.430618        -0.741133
 C        -4.115972         0.792943        -1.993208
 O        -3.985437         2.205304        -1.889675
 H         1.420026         0.647109        -0.592045
 H         0.981666        -1.043842        -0.922972
 H         0.841965         0.242831        -2.112224
 H        -3.746224        -0.719197         0.818893
 H        -2.088270         0.770206         2.732760
 H        -4.495395         1.721440         1.328193
 H        -3.096751         2.315524         0.576048
 H        -5.577589         1.464950        -0.659440
 H        -3.216446         0.130501        -2.229770
 H        -4.919743         0.435966        -2.628424
