19
Iteration:  1217
 C         1.296278        -0.136798        -0.385901
 C        -0.185825        -0.246138        -0.356324
 C        -1.335442         0.071600        -0.066042
 C        -2.721538         0.082465         0.432030
 O        -2.845276        -0.027337         1.913478
 C        -3.499382         1.458740         0.204137
 C        -4.705135         1.317428        -0.675775
 C        -4.816684         1.246118        -2.135754
 O        -5.024001         2.537132        -1.498680
 H         1.738031        -1.095316        -0.120080
 H         1.692977         0.273732        -1.303884
 H         1.575769         0.527325         0.440190
 H        -3.476063        -0.594434        -0.053067
 H        -1.971656        -0.427462         2.223244
 H        -3.625120         1.806813         1.245794
 H        -3.032924         2.267277        -0.338620
 H        -5.688458         1.061133        -0.256159
 H        -4.049647         1.382067        -2.817448
 H        -5.631029         0.717368        -2.586306
