19
Iteration:  4452
 C         0.403023        -0.364741        -1.422464
 C        -0.781074        -0.157542        -0.389075
 C        -1.701909         0.039009         0.459368
 C        -2.978466         0.256933         1.140830
 O        -2.636487         0.624017         2.455017
 C        -3.838561         1.377687         0.406292
 C        -3.896361         1.099516        -1.101860
 C        -3.588765         1.976633        -2.150781
 O        -4.979779         1.480130        -1.830932
 H         0.417346         0.469134        -1.994151
 H         1.325573        -0.394514        -0.821103
 H         0.240538        -1.255170        -2.018790
 H        -3.599360        -0.654921         1.322103
 H        -1.741940         0.890499         2.530060
 H        -4.800937         1.400915         0.895394
 H        -3.214376         2.226558         0.626477
 H        -3.511018         0.021542        -1.371644
 H        -3.527810         3.019155        -2.108485
 H        -3.134439         1.461776        -3.065795
