19
Iteration:  1939
 C         1.049900         0.073506        -0.816105
 C        -0.248335        -0.027400        -0.104437
 C        -1.459988        -0.004789         0.237241
 C        -2.777671         0.146571         0.605386
 O        -2.888273         0.112549         2.131694
 C        -3.448568         1.463808         0.086114
 C        -4.582084         1.112215        -0.852234
 C        -4.442477         1.224930        -2.292477
 O        -5.048139         2.325882        -1.470042
 H         1.896011         0.572482        -0.286630
 H         1.577248        -0.898824        -1.081736
 H         0.840932         0.476865        -1.836182
 H        -3.391784        -0.799605         0.194856
 H        -2.794097        -0.824985         2.413303
 H        -3.858715         2.091763         0.864550
 H        -2.562174         1.894564        -0.337292
 H        -5.273485         0.385068        -0.334938
 H        -3.389497         1.321563        -2.634031
 H        -5.144050         0.503693        -2.624899
