19
Iteration:   466
 C         1.501932        -0.000193        -0.343711
 C         0.018936        -0.164870        -0.232402
 C        -1.142080         0.017906         0.162468
 C        -2.730860         0.047539         0.338470
 O        -2.916221        -0.389389         1.693573
 C        -3.375555         1.426803        -0.044561
 C        -4.835782         1.451325        -0.583737
 C        -5.172724         1.328054        -2.036935
 O        -5.055781         2.655594        -1.419240
 H         1.813479         0.239623        -1.351715
 H         1.971215         0.781599         0.272744
 H         1.957878        -0.853240         0.149701
 H        -3.196462        -0.831005        -0.217081
 H        -3.814363        -0.195950         2.006990
 H        -3.119162         2.133336         0.741149
 H        -2.882785         1.579183        -1.030174
 H        -5.689641         1.067691         0.224249
 H        -4.429798         0.849290        -2.668976
 H        -6.207595         1.283071        -2.361877
