19
Iteration:   732charge 0 multiplicity 1
 C         1.481869        -0.122861        -0.040107
 C         0.010233        -0.127425         0.167303
 C        -1.203392        -0.113501        -0.209644
 C        -2.655049         0.159018        -0.024491
 O        -3.010257        -0.331734         1.303317
 C        -3.165490         1.697971        -0.206548
 C        -4.739990         1.588217        -0.383137
 C        -5.186894         1.169825        -1.750719
 O        -5.277472         2.536043        -1.259717
 H         1.681088         0.696477        -0.700265
 H         1.990223        -0.060258         0.869545
 H         1.634374        -1.035187        -0.552077
 H        -3.203149        -0.322279        -0.876649
 H        -2.501935        -1.187614         1.446592
 H        -3.082858         2.170286         0.696989
 H        -2.472315         2.079616        -0.938798
 H        -5.386169         1.362427         0.413399
 H        -4.465495         1.066157        -2.534190
 H        -6.085127         0.542444        -1.889201
