19
Iteration:  4390charge 0 multiplicity 1
 C         0.424326        -0.280869        -1.318837
 C        -0.745353        -0.070514        -0.456287
 C        -1.661418        -0.038007         0.364291
 C        -2.964935         0.178173         1.033819
 O        -2.617918         0.659291         2.434846
 C        -3.858043         1.304552         0.482419
 C        -4.123724         0.964409        -0.978815
 C        -3.529479         1.663629        -2.165724
 O        -4.928196         1.833453        -1.858895
 H         0.524389         0.456677        -2.187533
 H         1.438311        -0.125734        -0.838497
 H         0.593171        -1.243888        -1.805557
 H        -3.539900        -0.734564         1.213975
 H        -2.186852         1.502189         2.506173
 H        -4.748427         1.332141         1.119504
 H        -3.325747         2.316498         0.721240
 H        -4.405813        -0.067994        -1.071507
 H        -2.859965         2.525314        -2.014751
 H        -3.237386         1.086985        -3.106044
