19
Iteration:  3659
 C         1.431843        -0.135329         0.186057
 C        -0.042904         0.034268         0.141817
 C        -1.257193        -0.077278        -0.147443
 C        -2.660656         0.081310         0.069156
 O        -3.134893        -0.118425         1.417268
 C        -2.973400         1.562602        -0.640516
 C        -4.488615         1.902668        -0.516390
 C        -5.484586         1.016910        -1.164210
 O        -5.165788         2.226369        -1.768077
 H         1.615438        -1.234990         0.295851
 H         1.804215         0.233498        -0.794637
 H         1.900083         0.344846         1.016730
 H        -3.221219        -0.581209        -0.638870
 H        -2.444951        -0.762352         1.825747
 H        -2.260086         2.525836        -0.310274
 H        -2.446068         1.424489        -1.618126
 H        -4.857571         2.293724         0.433196
 H        -5.137321         0.157762        -1.760526
 H        -6.438097         0.844459        -0.731382
