19
Iteration:   310charge 0 multiplicity 1
 C         1.463102        -0.289868         0.075079
 C         0.037115         0.096949         0.182609
 C        -1.162125         0.218553         0.032738
 C        -2.551480         0.154484        -0.147795
 O        -3.239301        -0.484608         0.940608
 C        -3.057699         1.521269        -0.549991
 C        -4.497984         1.705993        -0.371376
 C        -5.408788         1.118037        -1.333835
 O        -5.300486         2.512251        -1.214446
 H         1.635075        -1.033749        -0.716060
 H         2.013655         0.626129        -0.164095
 H         1.889082        -0.717031         0.975664
 H        -2.844717        -0.518251        -1.061417
 H        -2.636570        -0.490059         1.760210
 H        -2.525590         2.258209         0.117072
 H        -2.680034         1.689066        -1.540570
 H        -4.759399         1.670310         0.718214
 H        -5.008653         0.594678        -2.158988
 H        -6.319875         0.769999        -0.945024
