19
Iteration:   669charge 0 multiplicity 1
 C         1.357225        -0.167117        -0.166798
 C        -0.055442         0.025612        -0.348747
 C        -1.251880         0.079703        -0.084213
 C        -2.657008         0.123100         0.272577
 O        -3.048368        -0.267954         1.570231
 C        -3.278067         1.524156        -0.026272
 C        -4.768613         1.278145        -0.549712
 C        -4.989990         1.333538        -1.960905
 O        -5.068972         2.522254        -1.237751
 H         2.063339         0.365561        -0.804181
 H         1.619737         0.176609         0.838596
 H         1.686968        -1.203907        -0.317375
 H        -3.280366        -0.560996        -0.340062
 H        -2.659089        -1.099113         1.898239
 H        -3.267006         2.302198         0.717270
 H        -2.879232         2.015952        -0.885350
 H        -5.554656         0.957714         0.083514
 H        -4.118117         1.301728        -2.621329
 H        -6.002345         0.907527        -2.253709
