19
Iteration:  4469
 C         0.336408        -0.380079        -1.323354
 C        -0.686106        -0.076567        -0.450973
 C        -1.632355        -0.155260         0.343219
 C        -2.887739         0.222883         1.107432
 O        -2.752006         0.738057         2.489665
 C        -3.754179         1.382362         0.443595
 C        -3.817217         1.033504        -1.008312
 C        -3.726540         2.027963        -2.167652
 O        -4.971032         1.488526        -1.884583
 H         0.527835         0.419757        -2.200466
 H         1.264656        -0.609309        -0.799115
 H         0.030401        -1.293681        -1.914445
 H        -3.595495        -0.635201         1.089287
 H        -1.870055         0.860724         2.741803
 H        -4.769436         1.199707         0.936837
 H        -3.463471         2.437094         0.736823
 H        -3.652515         0.067676        -1.360456
 H        -3.566272         3.104969        -1.849561
 H        -3.311847         1.747571        -3.104614
