19
Iteration:  3171charge 0 multiplicity 1
 C         1.288290        -0.112433        -0.360848
 C        -0.221594        -0.003824        -0.399092
 C        -1.394087         0.068332         0.070549
 C        -2.768163         0.106968         0.468955
 O        -2.799994         0.012720         1.929917
 C        -3.453179         1.336579         0.064797
 C        -4.575285         1.141239        -0.857738
 C        -4.510660         1.544571        -2.252659
 O        -5.302599         2.278452        -1.254940
 H         1.614925         0.678055         0.335384
 H         1.683447        -1.101592         0.023748
 H         1.582876         0.062284        -1.437685
 H        -3.325670        -0.731259        -0.017220
 H        -3.762523         0.018256         2.271788
 H        -3.942813         1.781664         1.034371
 H        -2.711381         2.104291        -0.346360
 H        -5.204899         0.265553        -0.539177
 H        -3.619837         1.917089        -2.650412
 H        -5.047378         0.962412        -3.005545
