19
Iteration:  4748
 C         1.050483        -0.483216        -0.700335
 C        -0.299851        -0.118867        -0.258182
 C        -1.444050        -0.064559         0.270116
 C        -2.799724         0.143626         0.793133
 O        -2.703279         0.422968         2.249970
 C        -3.586365         1.285998         0.041227
 C        -4.619128         1.146940        -1.020818
 C        -4.272752         1.579874        -2.422080
 O        -5.208985         2.361999        -1.524846
 H         1.549653         0.456405        -0.727839
 H         1.304370        -1.239143         0.122055
 H         0.942218        -0.870143        -1.724639
 H        -3.454793        -0.788194         0.729851
 H        -1.709121         0.233482         2.535191
 H        -4.128139         1.712869         0.938129
 H        -2.944182         2.154871        -0.180605
 H        -5.299989         0.307555        -0.744133
 H        -3.335968         2.104609        -2.473375
 H        -4.666207         1.096248        -3.233500
