19
Iteration:  1947charge 0 multiplicity 1
 C         1.026425         0.112353        -0.826183
 C        -0.294227        -0.014148        -0.106296
 C        -1.422141        -0.021934         0.236663
 C        -2.806616         0.082436         0.701635
 O        -2.946783         0.137813         2.056060
 C        -3.346430         1.421471         0.045171
 C        -4.525044         1.107349        -0.800204
 C        -4.477012         1.238058        -2.237125
 O        -5.029238         2.297540        -1.472373
 H         1.753956         0.655975        -0.179255
 H         1.294146        -0.977403        -0.949579
 H         0.970049         0.640179        -1.833581
 H        -3.263816        -0.705171         0.159810
 H        -2.607244        -0.679924         2.428314
 H        -3.648872         2.185066         0.774810
 H        -2.595356         1.816551        -0.602826
 H        -5.332329         0.469045        -0.423585
 H        -3.538337         1.350732        -2.761386
 H        -5.267816         0.770166        -2.827646
