19
Iteration:  1290
 C         1.060856        -0.221882        -0.909638
 C        -0.242989         0.022744        -0.229053
 C        -1.334046         0.006928         0.345226
 C        -2.764469         0.113585         0.657052
 O        -3.010655        -0.014820         2.144815
 C        -3.385164         1.498135         0.161681
 C        -4.467848         1.235971        -0.868336
 C        -4.410816         1.478256        -2.289862
 O        -5.224752         2.326955        -1.435803
 H         1.176814        -1.259014        -1.330791
 H         1.157798         0.608795        -1.692143
 H         1.892421         0.099206        -0.202949
 H        -3.248928        -0.661734         0.011855
 H        -2.621537        -0.926735         2.163582
 H        -3.998540         2.007137         0.941581
 H        -2.501883         2.103502        -0.150857
 H        -5.027189         0.336994        -0.503895
 H        -3.546922         1.970664        -2.792548
 H        -4.981933         0.721933        -2.901279
