19
Iteration:  3347
 C         1.559881         0.083640        -0.104750
 C         0.027017        -0.132847         0.213021
 C        -1.230341        -0.072889         0.072227
 C        -2.689360         0.029668         0.143740
 O        -3.209061        -0.220696         1.464039
 C        -3.140562         1.382551        -0.454625
 C        -4.562418         1.564705        -0.507534
 C        -5.443464         1.118055        -1.692683
 O        -5.065295         2.572015        -1.499237
 H         2.267349         0.138154         0.665521
 H         1.793706        -0.774508        -0.717892
 H         1.666556         0.971343        -0.781863
 H        -3.017460        -0.871855        -0.441260
 H        -2.499411        -0.141534         2.151520
 H        -2.590583         2.242801         0.120024
 H        -2.683409         1.469925        -1.499006
 H        -5.284440         1.594527         0.327212
 H        -5.078604         0.603631        -2.618135
 H        -6.432648         1.063024        -1.411039
