19
Iteration:   412
 C         1.303820        -0.155009        -0.102603
 C        -0.092555         0.224587        -0.021856
 C        -1.294092        -0.045271        -0.086244
 C        -2.764356         0.146743         0.083152
 O        -2.890745        -0.389195         1.512146
 C        -3.121921         1.512181        -0.275273
 C        -4.587177         1.539799        -0.491163
 C        -5.211661         1.144209        -1.751531
 O        -5.063603         2.525033        -1.329749
 H         1.603424        -0.309803        -1.145657
 H         1.881460         0.712106         0.255307
 H         1.596002        -1.054326         0.460167
 H        -3.349740        -0.669048        -0.524950
 H        -3.805090        -0.648677         1.595914
 H        -2.639250         1.984549         0.580964
 H        -2.626924         1.904498        -1.228931
 H        -5.210216         1.308106         0.545654
 H        -4.681690         1.027637        -2.717471
 H        -6.266395         0.761686        -1.727334
