19
Iteration:    24charge 0 multiplicity 1
 C         1.442526        -0.133542         0.083859
 C         0.062941         0.229150        -0.044089
 C        -1.152437         0.079051         0.002932
 C        -2.582581         0.004333        -0.197997
 O        -3.211620        -0.583054         1.012255
 C        -3.149506         1.369863        -0.352640
 C        -4.600039         1.433413        -0.405655
 C        -5.497831         1.469262        -1.565378
 O        -5.029401         2.677470        -0.958499
 H         1.472843        -1.038781         0.699418
 H         1.870433        -0.420405        -0.866718
 H         2.084760         0.630517         0.522624
 H        -2.782069        -0.580694        -1.116698
 H        -2.708339        -1.479858         1.089159
 H        -2.897241         2.016236         0.461500
 H        -2.788082         1.786381        -1.236597
 H        -4.992845         1.144073         0.523777
 H        -5.148872         1.243035        -2.514286
 H        -6.526322         1.369305        -1.411185
