19
Iteration:  3557
 C         1.387029        -0.371658         0.502553
 C         0.030786        -0.050678         0.270498
 C        -1.099456         0.244106        -0.030793
 C        -2.503197         0.155253        -0.289750
 O        -3.150851        -0.143849         0.901702
 C        -2.943760         1.551367        -0.826365
 C        -4.481365         1.966743        -0.532824
 C        -5.463873         0.943840        -0.770144
 O        -5.490133         2.172587        -1.579533
 H         1.502210        -1.347419         0.923845
 H         1.978625        -0.449507        -0.524153
 H         2.014981         0.366058         1.068095
 H        -2.652915        -0.631200        -1.060186
 H        -2.626302         0.197732         1.599457
 H        -2.075293         2.358642        -0.607254
 H        -2.804842         1.631227        -1.959249
 H        -4.644118         2.729078         0.230945
 H        -5.211987         0.110982        -1.398437
 H        -6.350567         0.896397        -0.067710
