19
Iteration:  1210charge 0 multiplicity 1
 C         1.296637        -0.114507        -0.337571
 C        -0.177475        -0.266371        -0.372403
 C        -1.347924         0.079989        -0.092324
 C        -2.721929         0.068130         0.452858
 O        -2.819525        -0.075420         1.913679
 C        -3.468060         1.461898         0.168169
 C        -4.736280         1.384894        -0.664654
 C        -4.839899         1.228380        -2.141079
 O        -5.057540         2.581715        -1.506990
 H         1.697863        -1.078599        -0.032807
 H         1.769248         0.190176        -1.255276
 H         1.586117         0.514091         0.486893
 H        -3.258678        -0.754443        -0.088102
 H        -1.883153        -0.352734         2.124810
 H        -3.823919         1.990472         1.067622
 H        -2.798323         2.309084        -0.160025
 H        -5.590402         0.979841        -0.111442
 H        -3.956457         0.939409        -2.904147
 H        -5.762648         0.652915        -2.524977
