19
Iteration:  3973charge 0 multiplicity 1
 C         1.263328        -0.435339        -0.315490
 C        -0.080640        -0.058855        -0.046112
 C        -1.335896         0.080780        -0.101550
 C        -2.713730         0.315501         0.504529
 O        -2.686667         0.384540         1.919207
 C        -3.490495         1.503276         0.028799
 C        -4.660981         1.107909        -0.822211
 C        -4.720746         1.286882        -2.283087
 O        -5.402164         2.189041        -1.443614
 H         1.399505        -1.174124        -1.053980
 H         2.049996         0.331092        -0.462730
 H         1.568973        -0.978503         0.590097
 H        -3.313523        -0.571897         0.360798
 H        -2.040218        -0.101658         2.376397
 H        -3.918052         2.174550         0.838597
 H        -2.789314         2.399057        -0.442080
 H        -5.424847         0.561392        -0.253983
 H        -3.877363         1.583800        -2.895570
 H        -5.361855         0.602013        -2.975335
