19
Iteration:  1052charge 0 multiplicity 1
 C         1.359220        -0.198463        -0.202083
 C         0.079153         0.098406         0.340349
 C        -1.139777         0.018087         0.235451
 C        -2.583488         0.156507         0.004317
 O        -3.311062        -0.308329         1.155984
 C        -2.967216         1.491267        -0.540421
 C        -4.461659         1.543261        -0.462803
 C        -5.418731         1.121837        -1.490753
 O        -5.197635         2.496689        -1.330580
 H         2.011239        -0.505729         0.571018
 H         1.255892        -0.939499        -0.973440
 H         1.789472         0.680744        -0.636929
 H        -2.845536        -0.544120        -0.772457
 H        -2.911010         0.035478         1.973998
 H        -2.533394         2.401500        -0.092891
 H        -2.845449         1.572382        -1.610020
 H        -4.836341         1.750027         0.593496
 H        -4.927550         0.544090        -2.270675
 H        -6.428367         0.812760        -1.332198
