19
Iteration:  2530
 C         1.450731         0.039888        -0.353954
 C        -0.051660        -0.068591        -0.219649
 C        -1.191340         0.046537         0.193781
 C        -2.663013        -0.023077         0.290000
 O        -3.170686        -0.252823         1.640969
 C        -3.314695         1.307085        -0.050662
 C        -4.658914         1.335158        -0.615101
 C        -4.942869         1.323146        -2.044474
 O        -5.210345         2.593250        -1.331695
 H         1.890454        -0.586146        -1.112206
 H         1.458166         1.137529        -0.548024
 H         1.986972        -0.138624         0.589697
 H        -2.879826        -0.848140        -0.330827
 H        -2.720019         0.280710         2.300834
 H        -3.388916         1.911177         0.881589
 H        -2.539802         1.864223        -0.709772
 H        -5.349809         0.821665         0.064554
 H        -4.129232         1.517287        -2.769532
 H        -5.774440         0.660500        -2.445108
