19
Iteration:  3014
 C         0.720631         0.168483        -1.052263
 C        -0.532607         0.131254        -0.326737
 C        -1.613348        -0.012958         0.172647
 C        -2.921570        -0.008768         0.901622
 O        -2.671415         0.060025         2.357757
 C        -3.883739         1.117907         0.418211
 C        -4.277774         1.015395        -1.068458
 C        -3.766969         1.705585        -2.237410
 O        -5.012633         2.167767        -1.643608
 H         1.109899         1.169709        -1.346014
 H         1.500459        -0.460904        -0.588586
 H         0.755904        -0.404873        -1.985957
 H        -3.504107        -0.918179         0.796477
 H        -1.731486         0.231730         2.432275
 H        -4.932103         1.013981         0.871355
 H        -3.567861         2.111183         0.724505
 H        -4.558412         0.000647        -1.397669
 H        -2.926064         2.413165        -2.043831
 H        -3.888577         1.383750        -3.293030
