19
Iteration:  2961
 C         0.353092         0.440955        -1.370721
 C        -0.721271         0.002903        -0.507798
 C        -1.723908        -0.183381         0.173572
 C        -2.958948        -0.011714         1.021542
 O        -2.772285         0.253736         2.430596
 C        -3.805801         1.063406         0.376309
 C        -4.140569         0.913195        -1.027676
 C        -3.386851         1.791878        -1.952545
 O        -4.743249         1.958558        -1.663817
 H         0.238818         1.577090        -1.602716
 H         1.366736         0.562819        -0.897155
 H         0.561570        -0.060704        -2.370412
 H        -3.608614        -0.923736         1.042693
 H        -3.523198        -0.186715         2.814991
 H        -4.697921         1.196219         0.908772
 H        -3.254340         1.985937         0.372641
 H        -4.426326        -0.082110        -1.464662
 H        -2.743430         2.504966        -1.462178
 H        -3.033107         1.399950        -2.876675
