19
Iteration:    23charge 0 multiplicity 1
 C         1.446878        -0.132045         0.082248
 C         0.060198         0.222821        -0.048628
 C        -1.160036         0.073034         0.005929
 C        -2.591683         0.001925        -0.202546
 O        -3.212844        -0.582759         1.016942
 C        -3.142921         1.376254        -0.350257
 C        -4.597723         1.417296        -0.404131
 C        -5.490508         1.470803        -1.568503
 O        -5.032371         2.688462        -0.956642
 H         1.496729        -1.022614         0.720565
 H         1.873731        -0.410984        -0.883240
 H         2.090346         0.632391         0.524679
 H        -2.776438        -0.583845        -1.105317
 H        -2.650004        -1.428964         1.105772
 H        -2.906845         2.033341         0.471219
 H        -2.776122         1.850352        -1.249150
 H        -5.013750         1.109750         0.532822
 H        -5.135273         1.230672        -2.563065
 H        -6.565009         1.336096        -1.424706
