19
Iteration:  2586
 C         1.252396        -0.174849        -0.527744
 C        -0.156101         0.137479        -0.033747
 C        -1.323863         0.145418         0.141767
 C        -2.739128         0.020136         0.420047
 O        -2.913955        -0.287270         1.806911
 C        -3.351809         1.471650         0.107260
 C        -4.549123         1.253243        -0.798908
 C        -4.632095         1.581662        -2.293592
 O        -5.395756         2.294195        -1.282260
 H         1.275496        -0.676833        -1.498915
 H         1.890482         0.733344        -0.679870
 H         1.652497        -0.767710         0.300168
 H        -3.127042        -0.841916        -0.122465
 H        -2.170640         0.233121         2.243834
 H        -3.736744         1.950711         1.037939
 H        -2.515537         2.070446        -0.442459
 H        -5.113433         0.398392        -0.367896
 H        -3.942328         2.237747        -2.822539
 H        -5.266483         0.921386        -2.942568
