19
Iteration:  4010charge 0 multiplicity 1
 C         1.164296        -0.393614        -0.401713
 C        -0.239609        -0.059544        -0.202641
 C        -1.343129         0.198926         0.124764
 C        -2.740369         0.306511         0.622562
 O        -2.604863         0.313545         1.996731
 C        -3.448769         1.584905         0.045050
 C        -4.557061         1.173559        -0.859691
 C        -4.697601         1.169524        -2.316884
 O        -5.343824         2.168833        -1.530406
 H         1.385342        -1.032669        -1.313547
 H         1.845752         0.442743        -0.336914
 H         1.319346        -0.964264         0.497515
 H        -3.325550        -0.481684         0.100818
 H        -2.728037        -0.647509         2.142702
 H        -3.833264         2.071232         0.923371
 H        -2.747949         2.155524        -0.537861
 H        -5.238071         0.479187        -0.199378
 H        -3.766787         1.575692        -2.820903
 H        -5.375370         0.528925        -2.781404
