19
Iteration:   166charge 0 multiplicity 1
 C         1.224166        -0.065297         0.458857
 C        -0.100538         0.129663        -0.057833
 C        -1.259421         0.016103        -0.374785
 C        -2.605310         0.068576        -0.354906
 O        -3.222634        -0.583324         0.853533
 C        -2.838039         1.536028        -0.626135
 C        -4.283778         1.774004        -0.227229
 C        -5.327369         1.077264        -1.056802
 O        -5.226134         2.510419        -1.110948
 H         1.424988        -1.134216         0.499466
 H         2.025018         0.332542        -0.135183
 H         1.285596         0.400702         1.445127
 H        -2.865549        -0.566254        -1.174215
 H        -3.826134         0.188859         1.117919
 H        -2.254433         2.167288         0.009436
 H        -2.722291         1.624309        -1.640378
 H        -4.434450         2.040937         0.769691
 H        -4.947938         0.638799        -1.936817
 H        -6.218470         0.622190        -0.726181
