19
Iteration:  2099
 C         1.459359        -0.114224        -0.105752
 C         0.014936         0.037173        -0.130547
 C        -1.175625         0.131303         0.204512
 C        -2.659327         0.133572         0.186887
 O        -3.057725        -0.052125         1.628165
 C        -3.160854         1.395301        -0.464665
 C        -4.603600         1.557383        -0.548819
 C        -5.454630         0.965251        -1.679536
 O        -5.069701         2.405689        -1.528696
 H         1.741408        -0.374901         0.866920
 H         1.892566        -0.834069        -0.734424
 H         1.895796         0.776635        -0.457252
 H        -2.952814        -0.763477        -0.457267
 H        -3.739680        -0.788797         1.643946
 H        -2.807707         2.289416         0.160495
 H        -2.605158         1.499932        -1.380025
 H        -4.977970         1.597184         0.473211
 H        -4.929477         0.316545        -2.407020
 H        -6.510675         0.958042        -1.580704
