19
Iteration:  4123
 C         0.945612        -0.096403        -0.902216
 C        -0.371290         0.010546        -0.288892
 C        -1.417725         0.095758         0.358089
 C        -2.776396         0.129349         0.840991
 O        -2.870711         0.277697         2.303724
 C        -3.334744         1.463316         0.148843
 C        -4.614873         1.292433        -0.805173
 C        -4.431766         0.894184        -2.257980
 O        -4.975901         2.327565        -1.841622
 H         0.870848        -0.146470        -1.994134
 H         1.533705         0.824000        -0.730948
 H         1.572524        -0.994770        -0.538792
 H        -3.323411        -0.844727         0.682024
 H        -2.351677        -0.428282         2.600752
 H        -3.853735         2.032279         0.935926
 H        -2.625835         1.959558        -0.372661
 H        -5.597442         0.929417        -0.402684
 H        -3.439114         0.768968        -2.604486
 H        -5.215100         0.353614        -2.813229
