19
Iteration:  2043
 C         1.216006         0.126442        -0.575696
 C         0.004162        -0.056674         0.094281
 C        -1.226167        -0.040932         0.325939
 C        -2.659907        -0.005921         0.451162
 O        -3.042626        -0.016194         1.836766
 C        -3.214310         1.340600        -0.296065
 C        -4.693383         1.380933        -0.593459
 C        -5.089520         1.134889        -2.053568
 O        -4.985164         2.428394        -1.519734
 H         2.015405         0.164201         0.110194
 H         1.279030        -0.785826        -1.072804
 H         1.256307         0.973413        -1.171980
 H        -3.118288        -0.897634        -0.071522
 H        -3.711455         0.620338         2.010426
 H        -2.860768         2.180313         0.359092
 H        -2.650532         1.349540        -1.249063
 H        -5.303866         1.131463         0.256491
 H        -4.377794         0.799371        -2.825615
 H        -6.109783         0.908639        -2.366177
