19
Iteration:   921charge 0 multiplicity 1
 C         1.230425         0.006563         0.542769
 C        -0.063496         0.011062        -0.095921
 C        -1.204801        -0.151002        -0.375445
 C        -2.667909        -0.006699        -0.246598
 O        -2.890397        -0.241743         1.165066
 C        -3.018322         1.348420        -0.752886
 C        -4.481853         1.611285        -0.405621
 C        -5.559532         1.242613        -1.173903
 O        -5.131087         2.545000        -1.235599
 H         1.204723         0.680576         1.362216
 H         1.453363        -0.923603         1.051571
 H         2.027847         0.293871        -0.122102
 H        -3.121474        -0.697013        -0.864625
 H        -2.039701        -0.215597         1.566349
 H        -2.294503         2.138472        -0.607083
 H        -3.196022         1.231746        -1.815335
 H        -4.666991         1.681333         0.777030
 H        -5.301000         0.733179        -2.197685
 H        -6.528234         1.070636        -0.685195
