19
Iteration:  2425charge 0 multiplicity 1
 C         1.490395         0.214096         0.131361
 C         0.061485        -0.002035        -0.056762
 C        -1.132291        -0.193223         0.035521
 C        -2.621936         0.020693         0.011979
 O        -3.322627        -0.418431         1.212750
 C        -2.966752         1.399129        -0.567703
 C        -4.486505         1.690622        -0.402449
 C        -5.664753         1.195592        -1.362763
 O        -5.049557         2.428136        -1.475422
 H         2.277859        -0.610518        -0.039998
 H         2.006746         1.015603        -0.460202
 H         1.557019         0.589088         1.207165
 H        -3.228062        -0.678555        -0.685689
 H        -3.022353         0.038800         2.033700
 H        -2.291852         2.090378        -0.112910
 H        -2.589193         1.257710        -1.564377
 H        -4.776608         2.223939         0.545878
 H        -5.475733         0.439677        -2.091237
 H        -6.657233         1.157588        -0.853882
