19
Iteration:  2819
 C         0.336221         0.227349        -1.603082
 C        -0.718295         0.204996        -0.541152
 C        -1.629944         0.117559         0.311659
 C        -2.941964        -0.025268         1.072189
 O        -2.833290         0.196493         2.559255
 C        -3.985119         0.825329         0.410334
 C        -4.003225         0.869438        -1.107872
 C        -3.346444         2.000263        -1.914215
 O        -4.732665         2.003300        -1.662768
 H         0.159937         0.654756        -2.633529
 H         1.178321         0.896041        -1.426544
 H         0.652120        -0.837221        -1.626999
 H        -3.223119        -1.071587         0.809837
 H        -3.143913        -0.540697         3.096691
 H        -4.942095         0.398010         0.670916
 H        -4.054783         1.943253         0.592524
 H        -4.328890        -0.044192        -1.706216
 H        -2.713383         2.680231        -1.439192
 H        -3.041493         1.681447        -2.920380
