19
Iteration:   579charge 0 multiplicity 1
 C         1.282847        -0.014318        -0.610309
 C        -0.092843        -0.176475        -0.186150
 C        -1.159001         0.018400         0.381851
 C        -2.595557         0.093615         0.419147
 O        -3.277789        -0.214102         1.715157
 C        -3.155348         1.411376        -0.032504
 C        -4.572494         1.211404        -0.774317
 C        -4.938175         1.461587        -2.142361
 O        -5.209168         2.559975        -1.220639
 H         1.225615         0.596889        -1.487405
 H         1.674379         0.603952         0.167469
 H         1.892860        -0.880852        -0.687099
 H        -2.869954        -0.756208        -0.229561
 H        -2.567256        -0.627558         2.173052
 H        -3.201500         1.933464         0.853109
 H        -2.636535         1.937932        -0.763954
 H        -5.153910         0.703617        -0.008542
 H        -4.042072         1.612948        -2.780538
 H        -5.769120         0.868024        -2.532889
