19
Iteration:   668
 C         1.364499        -0.169581        -0.171802
 C        -0.066313         0.040390        -0.337855
 C        -1.253754         0.075247        -0.081176
 C        -2.659924         0.120903         0.282895
 O        -3.046842        -0.265899         1.572589
 C        -3.283812         1.520982        -0.040281
 C        -4.765308         1.271596        -0.542246
 C        -4.988106         1.338666        -1.968297
 O        -5.062962         2.525349        -1.234413
 H         2.059942         0.328224        -0.813923
 H         1.632849         0.168236         0.801993
 H         1.653581        -1.186939        -0.347890
 H        -3.254333        -0.597632        -0.349297
 H        -2.648065        -1.078519         1.869235
 H        -3.274703         2.237234         0.704154
 H        -2.917402         2.043373        -0.866307
 H        -5.547261         0.973395         0.072363
 H        -4.124165         1.289058        -2.635519
 H        -5.984266         0.892423        -2.272857
