19
Iteration:  2920
 C        -0.005553         0.471083        -1.536056
 C        -0.971274         0.202721        -0.549932
 C        -1.761685         0.018154         0.391283
 C        -2.943250        -0.133544         1.094822
 O        -2.706764         0.134504         2.510682
 C        -3.921128         0.905169         0.460741
 C        -3.943309         0.912633        -1.081641
 C        -3.129775         1.797398        -1.985314
 O        -4.546215         1.982417        -1.782401
 H        -0.229577         1.339689        -2.156221
 H         0.968888         0.528681        -1.060018
 H         0.221466        -0.452330        -2.088248
 H        -3.329143        -1.188069         0.964927
 H        -3.278642         0.784160         2.940873
 H        -4.934994         0.697708         0.874615
 H        -3.622386         1.895705         0.939206
 H        -4.045215        -0.091854        -1.505268
 H        -2.599620         2.740589        -1.878072
 H        -2.962090         1.369971        -2.923249
