19
Iteration:  2520
 C         1.400891         0.083787        -0.329944
 C         0.009516        -0.066745        -0.207562
 C        -1.187862        -0.004437         0.185350
 C        -2.598189        -0.030925         0.326534
 O        -3.220625        -0.314440         1.650158
 C        -3.225944         1.351765        -0.134594
 C        -4.687337         1.389810        -0.607170
 C        -5.031347         1.307308        -2.033224
 O        -5.183580         2.567167        -1.343060
 H         1.943700        -0.500967        -1.043247
 H         1.766724         1.094697        -0.591668
 H         1.816246        -0.063580         0.662122
 H        -3.035120        -0.764140        -0.301420
 H        -2.577576         0.122064         2.199157
 H        -3.216924         1.829848         0.892119
 H        -2.638882         2.095682        -0.843087
 H        -5.471612         1.220342         0.124766
 H        -4.261412         1.265457        -2.805023
 H        -6.017298         0.873763        -2.331407
