19
Iteration:  1776
 C         0.801487        -0.075073        -0.938583
 C        -0.528272        -0.146123        -0.478839
 C        -1.642596         0.060738         0.016455
 C        -2.893611         0.118244         0.904998
 O        -2.629944         0.392203         2.193760
 C        -3.925057         1.083241         0.401241
 C        -4.403043         0.926382        -1.014582
 C        -3.794306         1.612097        -2.095853
 O        -4.941831         2.225905        -1.541913
 H         1.108645         0.953562        -0.938435
 H         1.410917        -0.652168        -0.255629
 H         0.678885        -0.514652        -1.893318
 H        -3.319485        -0.826781         0.957352
 H        -1.875396         1.001251         2.140269
 H        -4.842985         1.027666         1.128017
 H        -3.521428         2.179020         0.290223
 H        -5.187251         0.140885        -1.179676
 H        -2.893436         2.319882        -1.805234
 H        -3.771932         1.119511        -3.132883
