19
Iteration:   649
 C         1.332590        -0.197451        -0.322233
 C        -0.046842         0.196698        -0.124465
 C        -1.231541         0.082975         0.038579
 C        -2.723529         0.028342         0.157812
 O        -3.005512        -0.222545         1.660533
 C        -3.333017         1.334515        -0.064273
 C        -4.760047         1.367840        -0.617795
 C        -4.959526         1.334761        -2.019310
 O        -5.081811         2.558450        -1.225725
 H         1.788235         0.347042        -1.191535
 H         2.002195        -0.002950         0.580920
 H         1.406382        -1.323828        -0.450254
 H        -3.267131        -0.734133        -0.397155
 H        -2.537079        -0.989883         1.959938
 H        -3.332114         1.966096         0.912406
 H        -2.570959         1.803908        -0.737510
 H        -5.414255         0.866402         0.118326
 H        -4.049694         1.365868        -2.617748
 H        -5.961732         1.158741        -2.442035
