19
Iteration:  3060charge 0 multiplicity 1
 C         1.007128        -0.110119        -0.770478
 C        -0.426197         0.139668        -0.422087
 C        -1.492432         0.232574         0.074105
 C        -2.825328         0.097177         0.653803
 O        -2.688381         0.087433         2.066201
 C        -3.806134         1.219523         0.341212
 C        -4.518950         0.938655        -0.928148
 C        -3.961048         1.699323        -2.117723
 O        -5.132775         2.138105        -1.475494
 H         1.692237         0.775542        -0.599587
 H         1.375835        -0.848849        -0.087180
 H         1.447012        -0.591883        -1.664422
 H        -3.130250        -0.876627         0.299865
 H        -3.549888         0.069651         2.441435
 H        -4.622323         1.152760         1.049999
 H        -3.463296         2.256232         0.378188
 H        -5.262408         0.146422        -0.933787
 H        -2.974831         2.127404        -2.041301
 H        -4.085893         1.174866        -2.989197
