19
Iteration:  1994
 C         1.129782         0.192251        -0.760433
 C        -0.230854        -0.041825        -0.192737
 C        -1.276960        -0.221638         0.387630
 C        -2.718374         0.042527         0.658469
 O        -3.162396         0.085072         2.041389
 C        -3.126822         1.307412        -0.088463
 C        -4.577636         1.187000        -0.734100
 C        -4.794493         1.220814        -2.235136
 O        -5.022046         2.414238        -1.497331
 H         1.726659         0.726167         0.021592
 H         1.595938        -0.674977        -1.309826
 H         0.926127         1.063731        -1.456881
 H        -3.238064        -0.806128         0.144922
 H        -2.693677         0.825132         2.535915
 H        -3.097268         2.099213         0.634518
 H        -2.333243         1.423117        -0.810874
 H        -5.340715         0.797667        -0.010838
 H        -3.902245         1.311072        -2.894645
 H        -5.546091         0.593465        -2.696785
