19
Iteration:  1276charge 0 multiplicity 1
 C         1.037101        -0.170368        -0.800336
 C        -0.212221         0.044941        -0.138571
 C        -1.368584         0.036289         0.196167
 C        -2.747780         0.091075         0.643506
 O        -2.914570        -0.037490         2.049000
 C        -3.310961         1.454047         0.154145
 C        -4.560267         1.217220        -0.798633
 C        -4.459286         1.431135        -2.276272
 O        -5.242334         2.386226        -1.476145
 H         1.031877        -1.221888        -1.038843
 H         1.176715         0.270198        -1.754495
 H         1.891284        -0.067163        -0.176876
 H        -3.391061        -0.816246         0.236313
 H        -2.856254        -0.872267         2.485930
 H        -3.511553         1.947421         1.114912
 H        -2.545068         2.104216        -0.413254
 H        -5.361647         0.572484        -0.460595
 H        -3.410408         1.944082        -2.530241
 H        -5.046146         0.909211        -3.104794
