19
Iteration:  2830charge 0 multiplicity 1
 C         0.278489         0.229846        -1.664872
 C        -0.744618         0.256003        -0.587359
 C        -1.623432         0.183641         0.327329
 C        -2.867841        -0.036843         1.104364
 O        -2.938823         0.209625         2.527221
 C        -4.030616         0.863913         0.408743
 C        -3.967556         0.846964        -1.115172
 C        -3.251290         1.898211        -1.856542
 O        -4.680320         1.985012        -1.656046
 H        -0.353654         0.586429        -2.509347
 H         1.130786         0.787393        -1.296221
 H         0.704669        -0.767396        -1.966144
 H        -3.160280        -1.121199         1.027592
 H        -3.047865        -0.699104         2.761203
 H        -4.980684         0.501877         0.748612
 H        -3.916165         1.899151         0.880826
 H        -4.221966        -0.181413        -1.530326
 H        -2.706159         2.553943        -1.249471
 H        -3.037680         2.019220        -2.912307
