19
Iteration:  1573charge 0 multiplicity 1
 C         0.143203        -0.002713        -1.642161
 C        -0.677002        -0.080611        -0.455221
 C        -1.624620         0.099828         0.389622
 C        -2.918648         0.066335         1.132725
 O        -2.837668         0.448418         2.500169
 C        -3.919346         0.947299         0.346800
 C        -3.968903         0.896684        -1.062398
 C        -3.349796         1.888706        -1.879430
 O        -4.710855         1.962063        -1.751799
 H        -0.559526         0.341640        -2.472583
 H         1.096054         0.619048        -1.646287
 H         0.508622        -1.024891        -1.988317
 H        -3.184809        -0.978628         1.126350
 H        -2.879239         1.415945         2.625713
 H        -4.903550         0.703341         0.818706
 H        -3.619384         1.998041         0.575246
 H        -4.219237        -0.056849        -1.541616
 H        -2.766231         2.634017        -1.246357
 H        -2.892803         1.579804        -2.890583
