19
Iteration:  3243
 C         1.258047         0.031604        -0.499771
 C        -0.039056        -0.054746         0.051406
 C        -1.227100        -0.084291         0.371734
 C        -2.649037         0.039015         0.361392
 O        -3.129641        -0.082793         1.771622
 C        -3.188300         1.332089        -0.185814
 C        -4.641230         1.265292        -0.793580
 C        -4.920070         1.404855        -2.212451
 O        -5.197691         2.485989        -1.277148
 H         1.921578         0.618141         0.193048
 H         1.629947        -0.995016        -0.688298
 H         0.998693         0.464046        -1.452974
 H        -3.090005        -0.873134        -0.036392
 H        -2.233123        -0.189509         2.261734
 H        -3.394127         1.824728         0.715178
 H        -2.522188         1.885981        -0.787504
 H        -5.220182         0.567517        -0.204740
 H        -4.164038         1.636661        -3.011177
 H        -5.808499         0.998118        -2.732095
