19
Iteration:  4171charge 0 multiplicity 1
 C         0.813036         0.052368        -0.988870
 C        -0.416484        -0.103241        -0.246455
 C        -1.537484         0.054996         0.102944
 C        -2.864351         0.202936         0.820648
 O        -2.919168         0.385991         2.215130
 C        -3.491273         1.443682         0.233470
 C        -4.580631         1.233126        -0.673727
 C        -4.273001         0.845052        -2.131626
 O        -4.641045         2.213230        -1.754576
 H         0.675139         0.177142        -2.099814
 H         1.475714         0.973371        -0.732607
 H         1.512235        -0.838166        -0.886188
 H        -3.644709        -0.539773         0.534745
 H        -2.457021        -0.362355         2.727456
 H        -4.039742         1.995356         0.985068
 H        -2.664809         1.957008        -0.466213
 H        -5.538113         0.936598        -0.458324
 H        -3.150308         0.747708        -2.374646
 H        -4.984959         0.220665        -2.713917
