19
Iteration:  3788
 C         1.285783        -0.180036        -0.461568
 C        -0.006457         0.023674         0.160349
 C        -1.236319        -0.052487         0.264395
 C        -2.629039         0.193319         0.480667
 O        -3.205808         0.200358         1.849973
 C        -3.111727         1.331913        -0.427774
 C        -4.538077         1.305536        -0.726816
 C        -5.185053         1.145329        -2.072918
 O        -5.087471         2.428558        -1.427066
 H         1.197924        -1.167175        -0.982331
 H         1.343079         0.662028        -1.315304
 H         2.130044        -0.115487         0.238484
 H        -3.100279        -0.781854         0.095579
 H        -2.472855        -0.201527         2.280430
 H        -2.917754         2.186971         0.114731
 H        -2.624918         1.232095        -1.414745
 H        -5.131350         0.953621         0.134451
 H        -4.512038         0.962119        -2.983019
 H        -6.165816         0.608693        -2.246152
