19
Iteration:  3822
 C         1.267611        -0.202575        -0.450592
 C        -0.062880        -0.219105        -0.100821
 C        -1.133407         0.034810         0.472733
 C        -2.590288         0.161350         0.516460
 O        -3.143371         0.338436         1.830787
 C        -3.239900         1.323602        -0.298758
 C        -4.639267         1.201575        -0.808420
 C        -5.044267         1.252828        -2.235421
 O        -5.194943         2.370525        -1.356323
 H         1.692620        -1.050471        -1.102714
 H         1.600931         0.745939        -1.107599
 H         2.078002        -0.186713         0.285449
 H        -2.763335        -0.930829         0.196231
 H        -2.350694         0.423121         2.324324
 H        -3.321735         2.130728         0.359137
 H        -2.544062         1.766054        -1.008825
 H        -5.277037         0.711174        -0.017482
 H        -4.309918         1.264682        -3.041641
 H        -6.087573         0.754327        -2.339475
