19
Iteration:  1082charge 0 multiplicity 1
 C         1.518849        -0.134160        -0.283779
 C         0.097752        -0.175340         0.092292
 C        -1.099054         0.049461         0.305050
 C        -2.641252         0.166056         0.125332
 O        -3.347587        -0.266439         1.309765
 C        -3.084583         1.507387        -0.297088
 C        -4.496154         1.595366        -0.550242
 C        -5.340550         1.101063        -1.611423
 O        -5.272620         2.530089        -1.439119
 H         2.105086        -0.665434         0.548711
 H         1.840370        -0.678113        -1.239645
 H         1.916369         0.924782        -0.336696
 H        -3.031691        -0.640584        -0.669773
 H        -2.774472         0.038678         2.018930
 H        -2.763944         2.324263         0.450206
 H        -2.582532         1.748102        -1.319542
 H        -5.141437         1.699573         0.321823
 H        -4.816067         0.587806        -2.431825
 H        -6.295423         0.716140        -1.372217
