19
Iteration:  2855charge 0 multiplicity 1
 C         0.033160         0.321539        -1.752856
 C        -0.826402         0.236752        -0.497243
 C        -1.550482         0.285972         0.447691
 C        -2.877804        -0.086382         1.000769
 O        -3.046695         0.205665         2.382139
 C        -3.936923         0.850508         0.414681
 C        -3.969671         0.827562        -1.002817
 C        -3.137908         1.825823        -1.693462
 O        -4.558896         1.949711        -1.729589
 H        -0.543046         0.676307        -2.529485
 H         0.941745         0.752395        -1.423281
 H         0.301399        -0.690967        -2.075140
 H        -3.211086        -1.088482         0.830015
 H        -2.219109        -0.204513         2.641242
 H        -4.883912         0.413445         0.965478
 H        -3.865659         1.988637         0.750030
 H        -4.249740        -0.116990        -1.436243
 H        -2.602127         2.689357        -1.218360
 H        -2.767562         1.544138        -2.657595
