19
Iteration:    88
 C         1.544183        -0.020661         0.242056
 C         0.120625        -0.227018         0.126549
 C        -1.062561        -0.036654         0.039663
 C        -2.487226         0.025529        -0.293975
 O        -3.119500        -0.750254         0.804375
 C        -3.043314         1.526089        -0.534157
 C        -4.568555         1.693455        -0.346518
 C        -5.710280         1.370380        -1.226514
 O        -5.299778         2.768345        -1.184859
 H         2.094930        -0.854935         0.668441
 H         1.911866         0.251488        -0.750335
 H         1.763855         0.806611         0.932643
 H        -2.693437        -0.518727        -1.204327
 H        -3.422921        -0.116474         1.497809
 H        -2.517764         2.350427        -0.002686
 H        -2.728773         1.711179        -1.575468
 H        -4.910037         1.705734         0.648183
 H        -5.568647         0.750826        -2.143716
 H        -6.730216         1.230062        -0.818776
