19
Iteration:  2359
 C         1.412236         0.011622         0.449685
 C        -0.027306         0.074464         0.305856
 C        -1.094154        -0.191748        -0.225263
 C        -2.558692         0.115234        -0.311591
 O        -3.207881        -0.276846         0.970250
 C        -2.988357         1.431030        -0.932437
 C        -4.425585         1.817255        -0.409921
 C        -5.566353         1.031257        -0.838466
 O        -5.242475         2.372757        -1.438528
 H         1.755519        -1.109538         0.546131
 H         1.987454         0.583894        -0.369259
 H         1.591425         0.782081         1.264378
 H        -2.834602        -0.726834        -1.055628
 H        -2.479291        -0.102167         1.579894
 H        -2.461576         2.291598        -0.693778
 H        -3.043025         1.544363        -1.996278
 H        -4.532704         2.268790         0.611755
 H        -5.381386         0.173428        -1.446233
 H        -6.420101         0.875816        -0.162142
