19
Iteration:  1641charge 0 multiplicity 1
 C         0.158737        -0.002800        -1.610529
 C        -0.942279         0.173778        -0.553920
 C        -1.681493         0.078337         0.388104
 C        -2.940367         0.104228         1.139688
 O        -2.886833         0.235283         2.536569
 C        -3.749758         1.312091         0.522052
 C        -3.844570         1.016264        -0.925283
 C        -3.351556         1.898386        -2.031284
 O        -4.738571         1.662556        -1.898085
 H         0.049689         0.575338        -2.514685
 H         1.218712         0.069377        -1.332754
 H         0.146279        -1.035214        -2.024545
 H        -3.341632        -0.857775         0.915611
 H        -1.966316        -0.165236         2.718469
 H        -4.797814         1.167149         0.963649
 H        -3.196976         2.180967         0.749434
 H        -3.942211        -0.082132        -1.060770
 H        -3.136585         2.915312        -1.623537
 H        -2.801823         1.488133        -2.864727
