19
Iteration:  3851
 C         1.389304        -0.267035        -0.448903
 C        -0.040758        -0.168274        -0.092732
 C        -1.254570         0.026215         0.221471
 C        -2.738005         0.220999         0.531138
 O        -3.072394         0.313165         2.019462
 C        -3.246961         1.365719        -0.310615
 C        -4.657338         1.173791        -0.760707
 C        -4.849878         1.333622        -2.252588
 O        -5.356921         2.286965        -1.355977
 H         1.558678        -1.078424        -1.092729
 H         1.675865         0.604206        -0.963524
 H         2.025731        -0.387318         0.425618
 H        -3.094237        -0.724655         0.133403
 H        -2.196172         0.605283         2.379100
 H        -2.994763         2.428545         0.020595
 H        -2.416574         1.379859        -1.130358
 H        -5.320695         0.600647        -0.174400
 H        -3.934851         1.568488        -2.871143
 H        -5.667880         0.779389        -2.699583
