19
Iteration:  1687charge 0 multiplicity 1
 C         0.278548         0.078525        -1.494009
 C        -0.649498        -0.126775        -0.470738
 C        -1.603826        -0.012557         0.304890
 C        -2.951589         0.102955         1.097533
 O        -2.804690         0.384696         2.529531
 C        -3.778750         1.222831         0.444053
 C        -3.910045         0.915685        -1.052801
 C        -3.546348         1.871115        -2.090239
 O        -4.879685         1.891473        -1.739506
 H         0.155533         1.031138        -1.927552
 H         1.242917        -0.016051        -1.042869
 H         0.377222        -0.633835        -2.271684
 H        -3.598159        -0.732801         0.973509
 H        -2.936833        -0.488719         2.989390
 H        -4.871816         1.163607         0.832660
 H        -3.282321         2.198316         0.510316
 H        -4.039296        -0.163412        -1.314580
 H        -2.871113         2.728930        -1.866470
 H        -3.270172         1.461084        -3.096316
