19
Iteration:  2990
 C         0.493237         0.313936        -1.192888
 C        -0.600052         0.007999        -0.315790
 C        -1.649080        -0.057722         0.263232
 C        -2.937429        -0.052687         0.929416
 O        -2.653111         0.191598         2.306928
 C        -3.869867         1.069746         0.421039
 C        -4.233451         1.024668        -1.018858
 C        -3.618875         1.784980        -2.169842
 O        -4.879410         2.058845        -1.693999
 H         0.500460         1.377529        -1.380762
 H         1.456485        -0.026135        -0.773496
 H         0.586157        -0.205622        -2.118027
 H        -3.540469        -0.959838         0.875319
 H        -2.372365        -0.652912         2.670129
 H        -4.852461         1.092587         1.094193
 H        -3.378162         2.030619         0.656053
 H        -4.508983         0.026663        -1.397368
 H        -2.847583         2.547367        -1.931350
 H        -3.520768         1.259928        -3.213715
