19
Iteration:  2683charge 0 multiplicity 1
 C         1.103945        -0.152531        -0.667315
 C        -0.290948         0.136176        -0.245090
 C        -1.559855         0.063857        -0.043542
 C        -2.848958         0.025360         0.691892
 O        -2.518791         0.056426         2.094508
 C        -3.803115         1.196297         0.286359
 C        -4.456318         1.081990        -1.090504
 C        -4.125638         1.912921        -2.213709
 O        -5.388310         2.126209        -1.377324
 H         1.178910        -0.192649        -1.752733
 H         1.870346         0.600083        -0.295453
 H         1.335020        -1.029142        -0.057647
 H        -3.433252        -0.880376         0.326073
 H        -2.075799        -0.826801         2.281510
 H        -4.644348         1.154767         0.937553
 H        -3.382722         2.141361         0.343576
 H        -4.825703         0.097820        -1.318163
 H        -3.421781         2.739075        -1.985528
 H        -4.311603         1.699145        -3.291132
