19
Iteration:  2334charge 0 multiplicity 1
 C         1.440797        -0.098454         0.652003
 C         0.018434         0.046123         0.140647
 C        -1.117493         0.119852        -0.185373
 C        -2.629785        -0.005442        -0.420577
 O        -3.177675        -0.153241         0.872958
 C        -2.894551         1.385983        -0.916443
 C        -4.339924         1.793777        -0.409623
 C        -5.581594         1.039665        -0.789507
 O        -5.415889         2.309880        -1.395429
 H         1.590026        -1.179069         0.793858
 H         2.158672         0.179967        -0.189039
 H         1.657620         0.662649         1.393400
 H        -2.891926        -0.896426        -1.158585
 H        -2.382543        -0.245860         1.372151
 H        -2.183585         2.222829        -0.607712
 H        -3.002681         1.539212        -2.059931
 H        -4.451463         2.366877         0.505166
 H        -5.626212         0.132592        -1.411094
 H        -6.130035         0.925421         0.104468
