19
Iteration:  2982
 C         0.439379         0.370162        -1.226857
 C        -0.599392        -0.042735        -0.365807
 C        -1.688368        -0.074217         0.228689
 C        -2.967341        -0.070873         0.936098
 O        -2.680209         0.227446         2.335982
 C        -3.815944         1.112317         0.468236
 C        -4.188430         0.939807        -1.047149
 C        -3.530333         1.746953        -2.085387
 O        -4.899118         2.081582        -1.717707
 H         0.589753         1.476991        -1.503209
 H         1.453160         0.274182        -0.762247
 H         0.366774        -0.240297        -2.197063
 H        -3.405053        -1.079744         0.832080
 H        -2.743925        -0.604080         2.855875
 H        -4.797036         1.099766         0.933037
 H        -3.296239         2.034226         0.619109
 H        -4.408678        -0.117004        -1.359058
 H        -2.797587         2.499676        -1.766894
 H        -3.471457         1.521432        -3.154387
