19
Iteration:  4233
 C         0.693116        -0.003089        -0.991467
 C        -0.610374         0.025157        -0.424442
 C        -1.715238         0.092192         0.026725
 C        -2.940371         0.222381         0.930579
 O        -2.696176         0.278209         2.337579
 C        -3.622440         1.574122         0.501300
 C        -4.426550         1.227495        -0.821567
 C        -4.029965         0.842611        -2.183758
 O        -4.638160         2.105204        -1.908358
 H         0.639349         0.241531        -2.009004
 H         1.344036         0.705910        -0.444355
 H         1.131791        -1.049696        -0.948168
 H        -3.614307        -0.640709         0.755146
 H        -1.789009        -0.112107         2.585703
 H        -4.434115         2.032929         1.138999
 H        -3.049353         2.465548         0.328433
 H        -5.443102         0.864585        -0.423338
 H        -2.905199         1.003678        -2.327451
 H        -4.687783         0.179233        -2.701512
