19
Iteration:  2412charge 0 multiplicity 1
 C         1.488401         0.236982         0.232805
 C         0.088054        -0.104494        -0.124565
 C        -1.148227        -0.095717         0.047427
 C        -2.610182        -0.051880        -0.019488
 O        -3.324668        -0.373774         1.149084
 C        -2.976315         1.342249        -0.569160
 C        -4.419307         1.721957        -0.490845
 C        -5.621643         1.158441        -1.170496
 O        -5.126841         2.475364        -1.520454
 H         2.002742        -0.742430         0.222148
 H         1.827789         1.052718        -0.425316
 H         1.526299         0.592348         1.275884
 H        -2.779317        -0.867955        -0.843644
 H        -2.899925         0.143065         1.844799
 H        -2.518176         2.189872        -0.010835
 H        -2.715538         1.535070        -1.679028
 H        -4.699684         1.926736         0.556326
 H        -5.564921         0.496218        -1.994479
 H        -6.563027         1.137739        -0.630132
