19
Iteration:  1057charge 0 multiplicity 1
 C         1.355457        -0.186962        -0.195881
 C         0.059095         0.055917         0.309639
 C        -1.119046         0.030495         0.234632
 C        -2.558995         0.148566         0.039497
 O        -3.326720        -0.314614         1.180634
 C        -2.959018         1.551203        -0.540158
 C        -4.486541         1.554671        -0.461966
 C        -5.421569         1.099421        -1.509801
 O        -5.199475         2.495169        -1.334885
 H         2.185539        -0.608846         0.494732
 H         1.299013        -0.905151        -1.066021
 H         1.756140         0.766035        -0.670256
 H        -2.866080        -0.710929        -0.650664
 H        -2.880488         0.023340         2.004041
 H        -2.437602         2.305106         0.072008
 H        -2.626249         1.632406        -1.622202
 H        -4.991838         1.786890         0.418539
 H        -4.940873         0.608998        -2.408153
 H        -6.513267         0.766658        -1.348626
