19
Iteration:  4196
 C         0.755663         0.043252        -0.986052
 C        -0.494527        -0.030267        -0.310372
 C        -1.587215        -0.024368         0.269080
 C        -2.909808         0.165931         0.832893
 O        -2.708869         0.273112         2.273065
 C        -3.568474         1.587046         0.285234
 C        -4.591916         1.332477        -0.745438
 C        -4.142880         0.830021        -2.094502
 O        -4.721796         2.185339        -1.943885
 H         0.572349         0.290851        -2.065527
 H         1.334877         0.871755        -0.670752
 H         1.366244        -0.804180        -0.954450
 H        -3.643378        -0.611234         0.558969
 H        -2.236269        -0.498384         2.610380
 H        -4.081905         2.129582         1.138831
 H        -2.635028         1.998180        -0.198283
 H        -5.603879         1.020628        -0.417588
 H        -3.095176         0.840034        -2.119007
 H        -4.598993         0.177449        -2.883908
