19
Iteration:  1182charge 0 multiplicity 1
 C         1.244932        -0.132402        -0.237474
 C        -0.181087        -0.051926        -0.199272
 C        -1.424675        -0.067651        -0.091782
 C        -2.769182         0.079537         0.366886
 O        -2.666495        -0.243982         1.809694
 C        -3.343642         1.554482         0.090390
 C        -4.784434         1.475570        -0.524937
 C        -4.929147         1.204542        -2.096505
 O        -5.080307         2.565059        -1.617082
 H         1.504243        -1.176593         0.133298
 H         1.828721        -0.137267        -1.227152
 H         1.716420         0.618290         0.472272
 H        -3.383538        -0.739033        -0.175260
 H        -1.669855        -0.101498         1.903214
 H        -3.505196         2.286547         0.920249
 H        -2.739317         2.037704        -0.719667
 H        -5.617374         1.275442         0.205551
 H        -4.113924         1.030638        -2.737515
 H        -5.816705         0.617590        -2.281306
