19
Iteration:   401
 C         1.314876        -0.102857        -0.058190
 C        -0.105146         0.078194        -0.092876
 C        -1.293336        -0.027866        -0.034736
 C        -2.651625         0.065783         0.057993
 O        -2.936447        -0.364291         1.463700
 C        -3.077435         1.583352        -0.290623
 C        -4.567767         1.582195        -0.467983
 C        -5.202476         1.112928        -1.714499
 O        -5.172517         2.565405        -1.316920
 H         1.679261        -0.358158        -1.057741
 H         1.925458         0.723794         0.339013
 H         1.474091        -0.964304         0.616117
 H        -3.182143        -0.576562        -0.774452
 H        -3.767256        -0.828343         1.507168
 H        -2.814090         2.387010         0.428689
 H        -2.475380         1.716886        -1.249992
 H        -5.260169         1.342412         0.505513
 H        -4.568429         0.669115        -2.517431
 H        -6.260370         0.768529        -1.669361
