19
Iteration:   105
 C         1.589481         0.044436         0.321067
 C         0.102386        -0.331441         0.117282
 C        -1.078008        -0.053923        -0.111439
 C        -2.509631         0.048527        -0.302647
 O        -3.281210        -0.576182         0.747425
 C        -3.073097         1.523825        -0.559029
 C        -4.506087         1.720484        -0.374316
 C        -5.677157         1.297047        -1.145858
 O        -5.247427         2.659812        -1.146292
 H         2.235517        -0.764449         0.723144
 H         1.991526         0.441423        -0.640799
 H         1.645541         0.847093         1.077742
 H        -2.841334        -0.568809        -1.197237
 H        -2.751370        -0.571726         1.603383
 H        -2.425673         2.012975         0.215794
 H        -2.580284         1.990054        -1.477219
 H        -4.814456         1.960988         0.715878
 H        -5.569664         0.855628        -2.172280
 H        -6.610626         1.051753        -0.565518
