19
Iteration:  1204
 C         1.280040        -0.123561        -0.283272
 C        -0.195749        -0.234694        -0.364919
 C        -1.333297         0.052712        -0.106776
 C        -2.746326         0.106759         0.463609
 O        -2.772150        -0.129384         1.891271
 C        -3.440118         1.487714         0.130225
 C        -4.762027         1.455728        -0.682509
 C        -4.860724         1.208254        -2.147505
 O        -5.079914         2.570971        -1.522611
 H         1.747127        -1.129362        -0.064958
 H         1.806533         0.128380        -1.270954
 H         1.567036         0.660063         0.489182
 H        -3.084332        -0.849760         0.009003
 H        -1.900008        -0.331625         2.187957
 H        -3.940712         1.862950         1.048915
 H        -2.560660         2.062329        -0.193538
 H        -5.489993         0.968681         0.011359
 H        -3.980589         0.883224        -2.598530
 H        -5.827667         0.845728        -2.362863
