19
Iteration:  1654charge 0 multiplicity 1
 C         0.152041         0.003958        -1.590980
 C        -0.870216         0.094310        -0.556971
 C        -1.600313         0.081411         0.342339
 C        -2.974752         0.123683         1.040767
 O        -2.892452         0.285947         2.475047
 C        -3.735007         1.310621         0.538183
 C        -3.848170         0.958566        -0.939678
 C        -3.341941         1.886629        -1.954351
 O        -4.797537         1.661534        -1.830905
 H         0.094210         0.797866        -2.263992
 H         0.995391         0.201837        -0.991431
 H         0.150722        -0.954066        -2.038898
 H        -3.678663        -0.694308         0.834633
 H        -2.314913        -0.348869         2.885986
 H        -4.747637         1.548072         1.049454
 H        -3.152821         2.232653         0.668803
 H        -3.725763        -0.119792        -1.209152
 H        -2.994515         2.864052        -1.655436
 H        -2.953501         1.383598        -2.853549
