19
Iteration:  2979charge 0 multiplicity 1
 C         0.447435         0.393632        -1.256105
 C        -0.609433        -0.053079        -0.385660
 C        -1.711623        -0.086245         0.214325
 C        -2.968538        -0.076270         0.946468
 O        -2.694688         0.236701         2.354186
 C        -3.798777         1.124495         0.461368
 C        -4.157226         0.907243        -1.066426
 C        -3.492670         1.742749        -2.043843
 O        -4.909768         2.082365        -1.718835
 H         0.472417         1.448216        -1.532538
 H         1.423261         0.311921        -0.751435
 H         0.283674        -0.181890        -2.142874
 H        -3.367790        -1.075199         0.788452
 H        -2.882204        -0.520481         2.889725
 H        -4.859456         1.103482         1.002358
 H        -3.246907         2.064296         0.628696
 H        -4.472881        -0.122203        -1.318695
 H        -2.746785         2.493327        -1.694189
 H        -3.424900         1.528580        -3.194130
