19
Iteration:  1514
 C         0.374106        -0.054165        -1.362479
 C        -0.802223         0.008942        -0.523782
 C        -1.799120         0.115586         0.217172
 C        -2.914115         0.022339         1.047473
 O        -2.553129         0.596717         2.361104
 C        -4.183749         0.707960         0.382974
 C        -4.157598         0.883731        -1.142261
 C        -3.339494         1.807708        -1.913158
 O        -4.678959         2.112123        -1.582550
 H         0.194602        -0.026623        -2.504449
 H         0.990145         0.878198        -1.179494
 H         0.873016        -1.018515        -1.121514
 H        -2.999204        -1.039898         1.428861
 H        -1.918338         1.268966         2.150068
 H        -5.181974         0.451674         0.722481
 H        -4.041984         1.705167         0.836254
 H        -4.626855         0.080383        -1.706962
 H        -2.616513         2.328604        -1.305439
 H        -3.073476         1.721521        -2.961067
