19
Iteration:  1752charge 0 multiplicity 1
 C         0.684041        -0.025287        -1.173890
 C        -0.544329        -0.037579        -0.336431
 C        -1.652149        -0.125050         0.151503
 C        -2.962091        -0.012872         0.902579
 O        -2.708905         0.537772         2.319551
 C        -3.824239         1.076625         0.305886
 C        -4.386021         0.966584        -1.099153
 C        -3.696057         1.755546        -2.138672
 O        -4.899933         2.103893        -1.485585
 H         0.975334         1.004809        -1.279977
 H         1.409248        -0.405413        -0.445178
 H         0.549040        -0.605346        -2.095569
 H        -3.457348        -0.967261         1.051927
 H        -1.766299         0.497124         2.377421
 H        -4.704372         1.102190         1.031617
 H        -3.318490         2.043299         0.339737
 H        -4.800296        -0.027847        -1.425915
 H        -2.714671         2.092146        -1.785729
 H        -3.851571         1.420564        -3.167648
