19
Iteration:  2388
 C         1.493210         0.159363         0.322097
 C         0.062188        -0.102023         0.119031
 C        -1.164281        -0.072659        -0.053323
 C        -2.631558        -0.041951        -0.222350
 O        -3.250465        -0.314583         1.045749
 C        -2.976235         1.324383        -0.748439
 C        -4.428869         1.852791        -0.423555
 C        -5.615257         1.093491        -1.025026
 O        -5.196397         2.426273        -1.467825
 H         2.021489        -0.745481         0.460765
 H         1.823039         0.886219        -0.411619
 H         1.502249         0.697329         1.255671
 H        -2.893614        -0.859005        -0.948783
 H        -2.701917         0.124055         1.687398
 H        -2.330427         2.092834        -0.171680
 H        -2.756438         1.543832        -1.871636
 H        -4.495272         2.303053         0.560577
 H        -5.352075         0.245747        -1.696758
 H        -6.540744         0.944656        -0.491163
