19
Iteration:  4582charge 0 multiplicity 1
 C         0.648276        -0.603750        -0.998040
 C        -0.573545        -0.185203        -0.320568
 C        -1.582044         0.033631         0.264915
 C        -2.747632         0.284049         0.929913
 O        -2.640150         0.668863         2.321991
 C        -3.740815         1.329826         0.269676
 C        -4.032162         1.109521        -1.128668
 C        -3.962166         2.130682        -2.111050
 O        -5.256116         1.602571        -1.749015
 H         1.198917         0.286653        -1.436715
 H         1.358675        -1.098736        -0.207882
 H         0.501708        -1.397763        -1.832546
 H        -3.443970        -0.571793         0.858689
 H        -1.872935         0.256890         2.791269
 H        -4.691163         1.312304         0.919693
 H        -3.471535         2.365765         0.366261
 H        -3.864739         0.008111        -1.416996
 H        -3.847745         3.071538        -1.695169
 H        -3.640471         1.830677        -3.110717
