19
Iteration:  2016
 C         1.092845         0.215877        -0.708237
 C        -0.086230        -0.185051         0.018688
 C        -1.280087        -0.051985         0.363362
 C        -2.738872         0.006218         0.568850
 O        -3.056630         0.021071         1.953718
 C        -3.208474         1.360481        -0.250546
 C        -4.601847         1.260441        -0.717448
 C        -4.906891         1.109342        -2.158200
 O        -4.943522         2.472281        -1.449682
 H         1.882602         0.571169         0.042979
 H         1.370553        -0.727225        -1.298494
 H         0.927906         1.130271        -1.404967
 H        -3.278871        -0.888948         0.146488
 H        -3.301192         0.871727         2.282909
 H        -3.120452         2.110603         0.506014
 H        -2.464846         1.495056        -1.038879
 H        -5.236721         0.776157         0.077603
 H        -4.149424         1.103525        -2.958203
 H        -5.858330         0.667733        -2.531088
