19
Iteration:   332
 C         1.538101        -0.162991         0.032440
 C         0.071189        -0.107202         0.108957
 C        -1.136181        -0.009827         0.091492
 C        -2.521311         0.185864        -0.242005
 O        -3.277361        -0.235035         1.038929
 C        -3.033063         1.653337        -0.352253
 C        -4.566932         1.554512        -0.397341
 C        -5.533728         1.053333        -1.421888
 O        -5.213188         2.516749        -1.232711
 H         1.817071        -0.811989        -0.811734
 H         2.025418         0.819885        -0.071375
 H         1.929237        -0.674529         0.906424
 H        -2.949019        -0.413936        -1.129406
 H        -2.814213        -0.989346         1.380055
 H        -2.524460         2.255415         0.421396
 H        -2.824071         2.007057        -1.326051
 H        -5.018134         1.528148         0.625052
 H        -5.108100         0.649960        -2.300439
 H        -6.503857         0.716279        -1.169051
