19
Iteration:  2056
 C         1.414310         0.028331        -0.497413
 C         0.002320         0.091039         0.026216
 C        -1.224193        -0.070857         0.338695
 C        -2.711714        -0.013103         0.412369
 O        -3.078671        -0.039893         1.824825
 C        -3.144419         1.315191        -0.342525
 C        -4.726088         1.433123        -0.632656
 C        -5.220421         1.040215        -1.966745
 O        -5.011081         2.501031        -1.512192
 H         2.175787         0.024812         0.279738
 H         1.606148        -0.775971        -1.201479
 H         1.636210         0.880623        -1.149194
 H        -3.093220        -0.934997        -0.056147
 H        -3.949426         0.464038         1.916045
 H        -2.889242         2.181904         0.350896
 H        -2.631037         1.528160        -1.250210
 H        -5.496717         1.443195         0.153375
 H        -4.391755         0.863354        -2.676348
 H        -6.195453         0.652031        -2.143220
