19
Iteration:   604
 C         1.373972        -0.064861        -0.651586
 C        -0.006801        -0.127244         0.083023
 C        -1.182406         0.013340         0.358399
 C        -2.655880         0.033091         0.437287
 O        -3.070502        -0.341284         1.761475
 C        -3.276707         1.516514        -0.106142
 C        -4.754251         1.340103        -0.758179
 C        -5.003204         1.435953        -2.244317
 O        -5.197840         2.601056        -1.241692
 H         1.146654         0.619184        -1.489996
 H         2.127353         0.405094         0.014475
 H         1.823147        -1.058907        -0.842856
 H        -2.984568        -0.755982        -0.269884
 H        -2.418837        -0.982784         2.030056
 H        -3.121861         2.255007         0.739255
 H        -2.695102         1.824576        -0.993985
 H        -5.417585         0.811125        -0.127165
 H        -4.147787         1.586054        -2.901871
 H        -5.955623         0.971742        -2.607635
