19
Iteration:  4705
 C         1.052974        -0.507665        -0.670763
 C        -0.345483        -0.327484        -0.193126
 C        -1.512371         0.042039         0.149165
 C        -2.860626         0.157457         0.739503
 O        -2.647126         0.630076         2.126895
 C        -3.699184         1.299755         0.193965
 C        -4.408938         1.081670        -1.146803
 C        -4.212390         1.751505        -2.364942
 O        -5.250917         2.166903        -1.361179
 H         1.574233         0.434239        -0.850423
 H         1.656510        -1.214106         0.046967
 H         1.033696        -0.993705        -1.679091
 H        -3.319653        -0.856943         0.832740
 H        -1.965347        -0.117687         2.327469
 H        -4.542688         1.517500         0.802608
 H        -3.236894         2.288956         0.182659
 H        -4.934832         0.100208        -1.323924
 H        -3.409796         2.463805        -2.583890
 H        -4.648777         1.266467        -3.205234
