19
Iteration:  4844charge 0 multiplicity 1
 C         0.961639        -0.300051        -0.754890
 C        -0.498683        -0.036457        -0.412854
 C        -1.569738         0.065846         0.129115
 C        -2.876572         0.223344         0.766740
 O        -2.804649         0.098529         2.216493
 C        -3.540965         1.588639         0.231629
 C        -4.647593         1.353684        -0.735578
 C        -4.229593         1.059906        -2.083553
 O        -4.807442         2.338406        -1.823275
 H         1.578054         0.543197        -0.530732
 H         1.290393        -1.216839        -0.235142
 H         1.044761        -0.417622        -1.858649
 H        -3.425606        -0.474328         0.186522
 H        -1.960808        -0.363626         2.464685
 H        -3.605364         2.321928         1.115241
 H        -2.854768         2.135041        -0.397053
 H        -5.658103         1.049796        -0.440289
 H        -3.043945         1.131459        -2.204391
 H        -4.746214         0.441615        -2.804437
