19
Iteration:  1331
 C         0.910357        -0.148070        -1.045235
 C        -0.319429        -0.216471        -0.294346
 C        -1.326652         0.184964         0.355717
 C        -2.790001         0.184750         0.718628
 O        -3.106924         0.044277         2.142216
 C        -3.476416         1.425242         0.199884
 C        -4.334817         1.128039        -0.908578
 C        -4.169446         1.605716        -2.241914
 O        -5.193332         2.166339        -1.394051
 H         1.064995        -0.928735        -1.773325
 H         0.870673         0.778105        -1.558310
 H         1.759251        -0.145709        -0.413892
 H        -3.140283        -0.827804         0.340087
 H        -2.351551        -0.033103         2.782925
 H        -3.992634         1.705512         1.122580
 H        -2.807096         2.320295        -0.018273
 H        -4.854372         0.171323        -0.793662
 H        -3.228790         2.219885        -2.621066
 H        -4.444397         0.989764        -3.157993
