19
Iteration:  2361charge 0 multiplicity 1
 C         1.431724         0.026112         0.440360
 C        -0.038492         0.060998         0.295218
 C        -1.075712        -0.203378        -0.217310
 C        -2.569434         0.104429        -0.306193
 O        -3.211263        -0.284982         0.979808
 C        -2.989575         1.444018        -0.918774
 C        -4.426068         1.808319        -0.382561
 C        -5.565973         1.030479        -0.866812
 O        -5.238539         2.389446        -1.459926
 H         1.745523        -1.074388         0.534142
 H         1.899840         0.624184        -0.381026
 H         1.630901         0.789840         1.256374
 H        -2.877492        -0.646094        -1.008884
 H        -2.546150        -0.105777         1.618178
 H        -2.425973         2.323082        -0.748164
 H        -3.089018         1.496514        -1.953902
 H        -4.489466         2.292963         0.635205
 H        -5.433568         0.107253        -1.447758
 H        -6.416574         0.854232        -0.109656
