19
Iteration:  4883charge 0 multiplicity 1
 C         0.852860        -0.236249        -0.891811
 C        -0.434617        -0.021646        -0.224932
 C        -1.583703         0.077545         0.077760
 C        -2.839294         0.243523         0.682862
 O        -2.816989         0.222635         2.137389
 C        -3.679157         1.474108         0.468523
 C        -4.614802         1.372100        -0.709047
 C        -4.343711         0.921975        -2.165642
 O        -4.473229         2.366814        -1.867853
 H         1.639650         0.586813        -0.689990
 H         1.377343        -1.172454        -0.727081
 H         0.704517        -0.229514        -1.994081
 H        -3.385325        -0.727154         0.657840
 H        -2.334680        -0.555972         2.564708
 H        -4.376812         1.504797         1.233865
 H        -2.967919         2.355144         0.512832
 H        -5.668418         1.252460        -0.390915
 H        -3.361508         0.717677        -2.421015
 H        -5.246853         0.470224        -2.644289
