19
Iteration:    42
 C         1.497728        -0.190094         0.118111
 C         0.102634         0.294183         0.037456
 C        -1.097220         0.177060        -0.069943
 C        -2.552394        -0.082695        -0.141395
 O        -3.176384        -0.660461         0.977471
 C        -3.117521         1.316313        -0.432027
 C        -4.667348         1.502114        -0.264103
 C        -5.595494         1.442134        -1.487059
 O        -5.039859         2.762186        -1.065037
 H         1.548783        -1.108257         0.731992
 H         1.885292        -0.310965        -0.924120
 H         2.193177         0.471013         0.669360
 H        -2.632220        -0.779752        -0.994105
 H        -3.706238        -1.378193         0.520194
 H        -2.637858         2.118081         0.207624
 H        -2.857599         1.750125        -1.504395
 H        -5.196011         1.480656         0.744242
 H        -5.228828         1.060721        -2.547658
 H        -6.741293         1.161184        -1.368850
