19
Iteration:   121
 C         1.479356         0.025208         0.380094
 C         0.123007        -0.168296         0.082875
 C        -1.066721        -0.130867        -0.207199
 C        -2.579120         0.017853        -0.397773
 O        -3.348729        -0.395278         0.773656
 C        -2.910250         1.490162        -0.527074
 C        -4.522421         1.721396        -0.241180
 C        -5.614028         1.189440        -1.124419
 O        -5.204542         2.641666        -1.146895
 H         2.002193        -0.900709         0.610547
 H         1.985711         0.405712        -0.506683
 H         1.589275         0.794137         1.158202
 H        -2.848204        -0.498862        -1.309182
 H        -2.848519        -1.252085         1.025085
 H        -2.462341         2.216348         0.136511
 H        -2.826024         1.729319        -1.559851
 H        -4.693622         1.753823         0.779544
 H        -5.345374         0.558612        -1.978144
 H        -6.620894         1.105089        -0.721386
