19
Iteration:  4569charge 0 multiplicity 1
 C         0.716308        -0.608373        -1.115938
 C        -0.478882        -0.228853        -0.363646
 C        -1.510230        -0.015417         0.329923
 C        -2.893768         0.262795         0.984013
 O        -2.717961         0.753251         2.366330
 C        -3.777587         1.342580         0.380101
 C        -4.058232         1.084603        -1.112800
 C        -3.960526         2.181010        -2.165863
 O        -5.225051         1.584165        -1.773643
 H         1.234955         0.272270        -1.690461
 H         1.477895        -1.095293        -0.464982
 H         0.390968        -1.351567        -1.918871
 H        -3.325644        -0.769847         0.997498
 H        -2.007951         0.169451         2.742153
 H        -4.782568         1.201405         0.962353
 H        -3.281716         2.314437         0.651001
 H        -3.696338         0.099691        -1.504826
 H        -3.828729         3.225971        -2.008721
 H        -3.535891         1.907935        -3.194996
