19
Iteration:  3004
 C         0.674071         0.199443        -1.111642
 C        -0.587137         0.090291        -0.317190
 C        -1.639776        -0.063457         0.244322
 C        -2.941412        -0.013073         0.908806
 O        -2.654212         0.118818         2.345884
 C        -3.907332         1.115423         0.438237
 C        -4.225095         1.006207        -1.088625
 C        -3.657249         1.757671        -2.239875
 O        -5.003002         2.132073        -1.647195
 H         0.892232         1.314179        -1.324681
 H         1.604925        -0.093394        -0.598803
 H         0.350777        -0.281441        -2.076532
 H        -3.332043        -1.003267         0.667879
 H        -1.752781        -0.276237         2.422106
 H        -4.839686         0.879190         0.979879
 H        -3.528288         2.094736         0.688334
 H        -4.838094         0.093582        -1.246724
 H        -2.896497         2.552909        -2.252633
 H        -3.726922         1.183948        -3.158741
