19
Iteration:  2427charge 0 multiplicity 1
 C         1.490285         0.205715         0.119028
 C         0.074668         0.017420        -0.043337
 C        -1.154173        -0.207583         0.031512
 C        -2.624613         0.010622         0.003376
 O        -3.320800        -0.423310         1.228052
 C        -2.963999         1.408147        -0.563739
 C        -4.505049         1.677790        -0.400960
 C        -5.651354         1.188864        -1.364175
 O        -5.033845         2.442506        -1.474310
 H         2.241764        -0.630366        -0.108817
 H         1.966692         1.044953        -0.457825
 H         1.631585         0.639789         1.178431
 H        -3.192198        -0.665615        -0.631602
 H        -3.015676         0.041101         2.076748
 H        -2.319200         2.144914        -0.161295
 H        -2.632369         1.270161        -1.516944
 H        -4.841798         2.231781         0.509948
 H        -5.443170         0.396531        -2.133348
 H        -6.708063         1.184589        -0.948260
