19
Iteration:  2901
 C        -0.031880         0.426186        -1.721243
 C        -0.873455         0.295240        -0.449103
 C        -1.729022         0.070068         0.372800
 C        -3.005798        -0.075837         1.208701
 O        -2.712984         0.036166         2.629425
 C        -4.018498         0.876212         0.466535
 C        -3.898168         0.874099        -1.125025
 C        -3.115894         1.814246        -1.986283
 O        -4.506888         2.002405        -1.846398
 H        -0.637162         1.091754        -2.253282
 H         0.965950         0.741080        -1.447924
 H         0.011824        -0.498173        -2.271988
 H        -3.250392        -1.088369         1.003448
 H        -3.044033         0.887134         2.885245
 H        -5.180523         0.698964         0.573870
 H        -3.950031         1.949257         0.812968
 H        -4.169327        -0.077177        -1.534437
 H        -2.480681         2.383897        -1.238541
 H        -2.641314         1.509307        -2.961853
