19
Iteration:  4297charge 0 multiplicity 1
 C         0.665651        -0.153443        -1.177355
 C        -0.521344        -0.019668        -0.411669
 C        -1.640648         0.077943         0.094283
 C        -2.928821         0.149318         0.991329
 O        -2.623233         0.567784         2.398351
 C        -4.061098         1.270271         0.509487
 C        -4.559423         1.090130        -0.876327
 C        -3.732528         1.085419        -2.124103
 O        -4.618180         2.230498        -1.901896
 H         0.473380         0.349507        -2.088937
 H         1.450338         0.309181        -0.661276
 H         0.890509        -1.208942        -1.339443
 H        -3.370270        -0.878789         1.017122
 H        -1.616618         0.696016         2.320853
 H        -4.899822         1.307523         1.271259
 H        -3.540282         2.165268         0.806428
 H        -5.542845         0.496735        -1.079101
 H        -2.605325         1.272643        -2.187399
 H        -4.015692         0.326819        -2.794217
