19
Iteration:  4575
 C         0.717183        -0.612091        -1.091714
 C        -0.536798        -0.203266        -0.337975
 C        -1.560065         0.000376         0.320085
 C        -2.809976         0.259661         0.932559
 O        -2.677905         0.718985         2.360557
 C        -3.765954         1.333892         0.336790
 C        -4.065650         1.126123        -1.101884
 C        -3.965991         2.128726        -2.130082
 O        -5.215187         1.586353        -1.766550
 H         1.187690         0.217886        -1.505924
 H         1.384577        -1.068349        -0.370264
 H         0.405812        -1.339571        -1.793347
 H        -3.400229        -0.675202         0.860559
 H        -2.007725         0.283157         2.818696
 H        -4.679685         1.201936         0.813858
 H        -3.392141         2.368490         0.370362
 H        -3.858937         0.183950        -1.586311
 H        -3.900609         3.254786        -1.871397
 H        -3.596222         1.876928        -3.091572
