19
Iteration:   391charge 0 multiplicity 1
 C         1.392442        -0.083891        -0.016533
 C        -0.026630        -0.063398        -0.158342
 C        -1.225353        -0.006629        -0.025675
 C        -2.661672         0.043573         0.124032
 O        -3.019403        -0.322187         1.373411
 C        -3.065713         1.564480        -0.286016
 C        -4.584444         1.617234        -0.440793
 C        -5.224582         1.147041        -1.648904
 O        -5.258520         2.555312        -1.353007
 H         1.901987        -0.386463        -0.947626
 H         1.846203         0.860600         0.355029
 H         1.633446        -0.890843         0.724528
 H        -3.185194        -0.658538        -0.650527
 H        -3.789011        -0.918947         1.310781
 H        -2.793366         2.414392         0.383984
 H        -2.717729         1.863633        -1.351499
 H        -5.048538         1.571303         0.649043
 H        -4.467904         0.873608        -2.458057
 H        -6.174752         0.517187        -1.653825
