19
Iteration:  1107charge 0 multiplicity 1
 C         1.456551        -0.114857        -0.217237
 C         0.068767        -0.147193        -0.178713
 C        -1.128159        -0.064718         0.134552
 C        -2.582687         0.146768         0.221823
 O        -3.267308        -0.241732         1.486148
 C        -3.147042         1.584890        -0.201289
 C        -4.682115         1.654130        -0.445422
 C        -5.235521         1.081700        -1.774865
 O        -5.146331         2.465248        -1.471587
 H         1.717789        -0.818593         0.542239
 H         1.933226        -0.495118        -1.117013
 H         1.912790         0.831974         0.020839
 H        -3.124392        -0.571775        -0.493925
 H        -2.740690         0.093361         2.196188
 H        -2.950557         2.441367         0.525527
 H        -2.963889         2.030015        -1.192143
 H        -5.410339         1.380851         0.378883
 H        -4.483848         0.609761        -2.356582
 H        -6.267387         0.822352        -1.943161
