19
Iteration:  1749
 C         0.646911        -0.014293        -1.177752
 C        -0.526407        -0.023564        -0.354706
 C        -1.632916        -0.160694         0.184055
 C        -2.980647         0.002857         0.949442
 O        -2.711094         0.537007         2.316461
 C        -3.817871         1.061648         0.299235
 C        -4.355658         0.940476        -1.096424
 C        -3.675119         1.762068        -2.166250
 O        -4.913721         2.118124        -1.496561
 H         1.001540         1.039305        -1.365782
 H         1.455010        -0.379641        -0.478239
 H         0.410620        -0.636319        -2.105526
 H        -3.485905        -1.060999         1.061337
 H        -1.744838         0.390161         2.434325
 H        -4.622317         1.164354         0.991409
 H        -3.417293         2.026644         0.361463
 H        -4.885993         0.041643        -1.430309
 H        -2.826834         2.257469        -1.785119
 H        -3.776156         1.449053        -3.166795
