19
Iteration:  3232charge 0 multiplicity 1
 C         1.247849         0.020432        -0.521808
 C        -0.021677        -0.093010         0.103463
 C        -1.259893        -0.103139         0.271995
 C        -2.673771         0.001448         0.439435
 O        -3.077596        -0.059906         1.827954
 C        -3.247731         1.371731        -0.111756
 C        -4.554870         1.263035        -0.812625
 C        -4.925161         1.495046        -2.299350
 O        -5.262802         2.428034        -1.307254
 H         1.954356         0.714466         0.004917
 H         1.858318        -0.894496        -0.687662
 H         1.235680         0.554226        -1.459624
 H        -3.102882        -0.804091        -0.196711
 H        -2.363291        -0.541378         2.341360
 H        -3.260476         2.033439         0.701363
 H        -2.506672         1.780993        -0.762537
 H        -5.354550         0.759511        -0.268874
 H        -4.069940         1.816900        -2.962059
 H        -5.725371         0.815768        -2.588922
