19
Iteration:  2032charge 0 multiplicity 1
 C         1.171307         0.127782        -0.621576
 C        -0.083497        -0.104357         0.125772
 C        -1.277890        -0.028990         0.333538
 C        -2.677716         0.095489         0.456827
 O        -3.018205        -0.013239         1.858679
 C        -3.190627         1.241575        -0.217226
 C        -4.619725         1.278123        -0.674094
 C        -5.019756         1.155992        -2.060981
 O        -4.980463         2.460421        -1.498603
 H         2.022232         0.364762        -0.072378
 H         1.507614        -0.519522        -1.365588
 H         0.916027         0.956063        -1.201621
 H        -3.144860        -0.810135        -0.031287
 H        -3.584271         0.768930         1.988545
 H        -2.991017         2.229023         0.291582
 H        -2.661247         1.420563        -1.188557
 H        -5.481322         1.189382        -0.062023
 H        -4.179182         0.872188        -2.709728
 H        -6.033452         0.772419        -2.230006
