19
Iteration:  3962charge 0 multiplicity 1
 C         1.323597        -0.464940        -0.259467
 C        -0.142137        -0.092089        -0.157792
 C        -1.303368         0.083472         0.096470
 C        -2.683388         0.261192         0.454916
 O        -2.664997         0.403326         1.914159
 C        -3.512705         1.546915        -0.040662
 C        -4.778467         1.102616        -0.804230
 C        -4.707293         1.301792        -2.271864
 O        -5.414828         2.218308        -1.447362
 H         1.475346        -1.133876        -1.069044
 H         1.923014         0.448218        -0.477203
 H         1.731357        -0.898475         0.634996
 H        -3.231968        -0.602590         0.089969
 H        -1.780057         0.063714         2.094695
 H        -3.847315         1.975063         0.942248
 H        -2.829258         2.271676        -0.698566
 H        -5.358414         0.276720        -0.366421
 H        -3.793400         1.748766        -2.618676
 H        -5.369144         0.642961        -2.935664
