19
Iteration:   703charge 0 multiplicity 1
 C         1.396608        -0.097866        -0.065596
 C        -0.009519        -0.259266        -0.192424
 C        -1.219920         0.009155        -0.104254
 C        -2.635186         0.071250         0.070723
 O        -2.943573        -0.288756         1.436551
 C        -3.219520         1.630876        -0.049052
 C        -4.691514         1.549146        -0.468744
 C        -5.036236         1.256889        -1.802850
 O        -5.370560         2.564334        -1.341320
 H         1.637437         0.771736        -0.709899
 H         1.574767         0.121034         1.024910
 H         1.926887        -1.075742        -0.203852
 H        -3.258687        -0.492138        -0.686542
 H        -2.692350        -1.174247         1.669355
 H        -3.213692         2.085290         0.991890
 H        -2.417869         2.124822        -0.621575
 H        -5.441080         1.177838         0.268181
 H        -4.261230         1.221292        -2.605640
 H        -5.843869         0.505990        -2.046608
