19
Iteration:   726
 C         1.502543        -0.101136        -0.048697
 C        -0.038956        -0.168168         0.124808
 C        -1.212545        -0.150331        -0.202397
 C        -2.652609         0.209870         0.005841
 O        -2.973496        -0.325278         1.314909
 C        -3.147985         1.634570        -0.135605
 C        -4.733144         1.593743        -0.416380
 C        -5.147146         1.223510        -1.762033
 O        -5.331681         2.510834        -1.298787
 H         1.590778         0.782644        -0.735573
 H         2.132996        -0.049965         0.910405
 H         1.786148        -1.128482        -0.469714
 H        -3.428618        -0.311507        -0.603017
 H        -2.508192        -1.188630         1.343958
 H        -2.898452         2.210096         0.872892
 H        -2.639530         2.283264        -0.929792
 H        -5.543321         1.439691         0.386424
 H        -4.433209         1.126492        -2.627121
 H        -6.017016         0.555621        -1.930406
