19
Iteration:  3882
 C         1.198554        -0.326380        -0.361265
 C        -0.123642         0.021390         0.010545
 C        -1.328599        -0.099955         0.227437
 C        -2.694730         0.192943         0.417966
 O        -2.789866         0.306770         1.924263
 C        -3.195927         1.484856        -0.189117
 C        -4.545372         1.141064        -0.872040
 C        -4.899228         1.336810        -2.291413
 O        -5.409193         2.230739        -1.342774
 H         1.046908        -1.187025        -1.013013
 H         1.626833         0.480392        -0.856074
 H         1.685049        -0.590593         0.626329
 H        -3.208153        -0.634325        -0.029023
 H        -2.130119         1.009144         2.088372
 H        -3.506480         2.215287         0.678058
 H        -2.322865         1.815063        -0.774287
 H        -5.177102         0.504757        -0.272998
 H        -4.124305         1.598073        -3.030201
 H        -5.636745         0.776491        -2.744620
