19
Iteration:  4570
 C         0.716691        -0.607659        -1.112689
 C        -0.482226        -0.226021        -0.363957
 C        -1.524290        -0.012833         0.333362
 C        -2.882520         0.262497         0.973484
 O        -2.713238         0.749971         2.365364
 C        -3.773622         1.344139         0.374161
 C        -4.062649         1.092260        -1.107999
 C        -3.961604         2.175217        -2.159117
 O        -5.222192         1.584060        -1.772634
 H         1.234659         0.272477        -1.667194
 H         1.481091        -1.102461        -0.428373
 H         0.379026        -1.362459        -1.910674
 H        -3.328753        -0.761357         0.970356
 H        -1.975628         0.164714         2.776407
 H        -4.776340         1.187504         0.936322
 H        -3.299593         2.310239         0.598756
 H        -3.718737         0.100515        -1.540716
 H        -3.843769         3.197212        -2.007183
 H        -3.540296         1.911536        -3.175589
