19
Iteration:  3298charge 0 multiplicity 1
 C         1.436730        -0.024544        -0.370975
 C        -0.007183         0.128526        -0.079180
 C        -1.137146         0.067175         0.291904
 C        -2.688359        -0.068867         0.324925
 O        -3.334533        -0.233018         1.653860
 C        -3.162153         1.266949        -0.369755
 C        -4.560399         1.408691        -0.580804
 C        -5.158886         1.233220        -1.973184
 O        -5.047772         2.582400        -1.314575
 H         1.856572         0.275360         0.674470
 H         1.814151        -1.057663        -0.635871
 H         1.739540         0.642969        -1.182352
 H        -2.893496        -0.961351        -0.272677
 H        -3.747867         0.633328         1.859712
 H        -2.954440         2.067083         0.238085
 H        -2.502484         1.302346        -1.186768
 H        -5.289574         1.242295         0.168215
 H        -4.424912         1.076664        -2.769739
 H        -6.148191         0.649214        -1.960489
