19
Iteration:   518
 C         1.228019         0.025836        -0.511658
 C        -0.132526         0.038053        -0.024658
 C        -1.313267        -0.180194         0.151018
 C        -2.714356         0.031646         0.284501
 O        -3.049130        -0.159153         1.702217
 C        -3.164186         1.426894        -0.116741
 C        -4.549532         1.369193        -0.584994
 C        -4.841601         1.373781        -2.102230
 O        -5.196857         2.474530        -1.204660
 H         1.251487         0.322222        -1.603987
 H         1.916938         0.762717        -0.017285
 H         1.745704        -0.974876        -0.432107
 H        -3.240975        -0.779092        -0.205168
 H        -3.683908        -0.872398         1.717371
 H        -2.893167         2.036730         0.829980
 H        -2.435191         1.750117        -0.879785
 H        -5.221545         0.982780         0.096627
 H        -4.058593         1.608002        -2.811062
 H        -5.592260         0.691328        -2.514396
