19
Iteration:  2806
 C         0.377143         0.207092        -1.437429
 C        -0.733516         0.172806        -0.498343
 C        -1.613662         0.056396         0.304936
 C        -2.877933        -0.057079         1.026478
 O        -2.692617         0.200655         2.464184
 C        -4.031400         0.848970         0.376837
 C        -4.034891         0.968919        -1.147548
 C        -3.417552         1.970998        -1.950140
 O        -4.843592         2.042967        -1.666399
 H        -0.126198         0.429657        -2.434257
 H         1.180334         0.841735        -0.993041
 H         0.898156        -0.766021        -1.585958
 H        -3.230985        -1.143629         1.020195
 H        -3.333447        -0.413567         2.917879
 H        -4.952728         0.525483         0.754239
 H        -3.802136         1.734717         0.919979
 H        -4.044445        -0.029673        -1.667287
 H        -2.899598         2.835773        -1.545894
 H        -3.105519         1.664286        -2.961208
