19
Iteration:  2407charge 0 multiplicity 1
 C         1.457230         0.215585         0.274185
 C         0.056146        -0.120838        -0.112490
 C        -1.112326        -0.060986         0.047801
 C        -2.581977        -0.093772        -0.090447
 O        -3.322395        -0.358279         1.138519
 C        -2.991732         1.352748        -0.594140
 C        -4.443392         1.699592        -0.517620
 C        -5.576084         1.129168        -1.086943
 O        -5.143051         2.517005        -1.524803
 H         2.083992        -0.669625         0.136549
 H         1.879152         0.975810        -0.392202
 H         1.554207         0.722958         1.243892
 H        -2.812943        -0.887037        -0.732265
 H        -2.875997         0.152146         1.840997
 H        -2.490570         2.162811        -0.011840
 H        -2.662686         1.523157        -1.610601
 H        -4.785609         2.024969         0.471450
 H        -5.564037         0.407159        -1.958727
 H        -6.572434         1.169355        -0.609598
