19
Iteration:   743
 C         1.412938        -0.165754        -0.031222
 C         0.009434        -0.049813         0.133315
 C        -1.162762         0.005357        -0.129048
 C        -2.619458         0.114810        -0.067173
 O        -3.085671        -0.331056         1.247795
 C        -3.198717         1.628736        -0.222995
 C        -4.645911         1.555734        -0.416532
 C        -5.228419         1.130716        -1.689122
 O        -5.246305         2.576072        -1.235777
 H         1.846714         0.659194        -0.559635
 H         1.970306        -0.184425         0.863766
 H         1.759059        -1.033011        -0.538808
 H        -3.046559        -0.571420        -0.831263
 H        -2.515745        -1.101021         1.513301
 H        -2.872811         2.229502         0.566471
 H        -2.809549         2.099465        -1.139716
 H        -5.039348         1.279068         0.512460
 H        -4.521996         0.889805        -2.463389
 H        -6.266708         0.773621        -1.779227
