19
Iteration:  3897charge 0 multiplicity 1
 C         1.261664        -0.373843        -0.305698
 C        -0.126328        -0.007395        -0.013558
 C        -1.348197        -0.067211         0.177996
 C        -2.725795         0.207603         0.505781
 O        -2.728419         0.281250         1.884062
 C        -3.323586         1.530389        -0.162840
 C        -4.526689         1.173010        -0.900844
 C        -4.937360         1.292022        -2.364632
 O        -5.352758         2.242580        -1.318177
 H         1.323113        -1.158599        -1.012455
 H         1.839775         0.441529        -0.814952
 H         1.872904        -0.681249         0.491639
 H        -3.435044        -0.672565         0.435051
 H        -2.111813         1.041180         2.182481
 H        -3.585927         2.120593         0.718575
 H        -2.755974         2.404724        -0.726186
 H        -5.088711         0.315768        -0.481417
 H        -4.292614         1.830803        -3.053573
 H        -5.747224         0.516355        -2.748522
