19
Iteration:  3394
 C         1.465693        -0.014372         0.284022
 C         0.086405        -0.001289        -0.126465
 C        -1.159666        -0.148218        -0.064049
 C        -2.699766         0.079676        -0.038236
 O        -3.085519        -0.094606         1.365397
 C        -3.048727         1.445773        -0.559192
 C        -4.522006         1.643868        -0.459862
 C        -5.572869         1.035945        -1.368500
 O        -5.094977         2.446427        -1.528650
 H         1.375566        -0.254882         1.361106
 H         2.115722        -0.759020        -0.326075
 H         1.858547         1.008272         0.187971
 H        -3.375310        -0.657835        -0.520514
 H        -3.711043        -0.832593         1.649012
 H        -2.427411         2.340213        -0.106638
 H        -2.723398         1.414426        -1.641885
 H        -5.043812         1.868631         0.442815
 H        -5.084429         0.468793        -2.132830
 H        -6.670588         0.875267        -1.065217
