19
Iteration:  2561charge 0 multiplicity 1
 C         1.306501        -0.088234        -0.452584
 C        -0.080087         0.079378        -0.017209
 C        -1.297477        -0.011581         0.033183
 C        -2.665611         0.192244         0.348559
 O        -3.013031        -0.345064         1.778225
 C        -3.357914         1.505699        -0.069227
 C        -4.690716         1.203328        -0.698739
 C        -4.714181         1.444994        -2.201066
 O        -5.245600         2.385858        -1.215795
 H         1.423707        -0.597702        -1.434770
 H         1.586847         0.988313        -0.698547
 H         1.928308        -0.546324         0.365061
 H        -3.096092        -0.689580        -0.169703
 H        -2.883153         0.311072         2.512605
 H        -3.635588         2.110407         0.738176
 H        -2.729462         1.977975        -0.712613
 H        -5.279764         0.533951        -0.099222
 H        -3.758410         1.904397        -2.553847
 H        -5.423777         1.026344        -2.981623
