19
Iteration:  4127
 C         0.940561        -0.084284        -0.910222
 C        -0.406839         0.010951        -0.306169
 C        -1.379175         0.041162         0.360840
 C        -2.774243         0.152512         0.834419
 O        -2.888274         0.295526         2.274214
 C        -3.377427         1.464960         0.191472
 C        -4.602407         1.278091        -0.812999
 C        -4.448922         0.897400        -2.240447
 O        -4.939553         2.312412        -1.838352
 H         0.813993        -0.092699        -2.001909
 H         1.527293         0.882121        -0.692912
 H         1.499418        -0.968934        -0.501581
 H        -3.140174        -0.875919         0.754309
 H        -2.331344        -0.476920         2.649358
 H        -3.945998         2.066019         0.878152
 H        -2.560424         2.008805        -0.439050
 H        -5.497680         1.034194        -0.320716
 H        -3.344558         0.821223        -2.612290
 H        -5.184686         0.351510        -2.811935
