19
Iteration:  3322
 C         1.405050         0.042488        -0.242867
 C        -0.009825         0.036487         0.046201
 C        -1.190475        -0.110282         0.318607
 C        -2.591223        -0.031931         0.230559
 O        -3.185911        -0.242062         1.490240
 C        -3.078076         1.394157        -0.371233
 C        -4.604230         1.426616        -0.529427
 C        -5.397464         1.207860        -1.876717
 O        -5.042023         2.569463        -1.422343
 H         1.990627         0.113657         0.709313
 H         1.607572        -0.907845        -0.650373
 H         1.697363         0.765626        -1.013681
 H        -2.870301        -0.865759        -0.439630
 H        -3.297519         0.678027         1.917653
 H        -2.789944         2.248628         0.192371
 H        -2.528354         1.467606        -1.300324
 H        -5.279365         1.476120         0.312942
 H        -4.771120         0.701705        -2.554711
 H        -6.509714         1.086631        -1.891571
