19
Iteration:  2763
 C         0.715987         0.188848        -1.097068
 C        -0.589872        -0.013489        -0.406420
 C        -1.717283        -0.158749         0.011780
 C        -2.900516        -0.068338         0.897944
 O        -2.557207         0.178194         2.284601
 C        -3.966722         1.079034         0.384961
 C        -4.175111         0.984755        -1.088002
 C        -3.604861         2.044697        -1.897833
 O        -5.095109         1.984269        -1.621973
 H         0.506369         0.278672        -2.199439
 H         1.261037         0.994855        -0.559112
 H         1.451299        -0.638789        -1.211265
 H        -3.426457        -1.043115         0.788953
 H        -3.132836         0.795934         2.827889
 H        -4.938167         1.102486         0.876991
 H        -3.611025         2.157173         0.452525
 H        -4.379634        -0.031640        -1.567264
 H        -2.983289         2.819427        -1.455490
 H        -3.434227         1.858812        -2.939649
