19
Iteration:  4574charge 0 multiplicity 1
 C         0.718908        -0.609441        -1.099039
 C        -0.521893        -0.208643        -0.346130
 C        -1.558180        -0.002150         0.326945
 C        -2.825090         0.259568         0.938663
 O        -2.685222         0.726122         2.362270
 C        -3.768039         1.337999         0.346302
 C        -4.067504         1.121091        -1.100637
 C        -3.965025         2.136640        -2.136719
 O        -5.214797         1.585408        -1.767965
 H         1.188687         0.212798        -1.527969
 H         1.414819        -1.081706        -0.367825
 H         0.392904        -1.344317        -1.814330
 H        -3.380213        -0.693441         0.876792
 H        -1.994230         0.256361         2.819964
 H        -4.681347         1.192097         0.819573
 H        -3.377904         2.342271         0.404797
 H        -3.833444         0.165937        -1.596058
 H        -3.891994         3.242144        -1.907720
 H        -3.589873         1.893995        -3.086437
