19
Iteration:   745charge 0 multiplicity 1
 C         1.416099        -0.171897        -0.029537
 C         0.018255        -0.036610         0.118558
 C        -1.180065         0.033999        -0.108362
 C        -2.605903         0.117613        -0.068665
 O        -3.099167        -0.331664         1.233108
 C        -3.187599         1.595591        -0.228759
 C        -4.628706         1.547610        -0.426754
 C        -5.232391         1.139674        -1.668725
 O        -5.244212         2.575293        -1.233988
 H         1.827167         0.682384        -0.532367
 H         1.971254        -0.236142         0.889831
 H         1.771652        -1.067793        -0.512425
 H        -3.087209        -0.606671        -0.788016
 H        -2.537648        -1.053639         1.502033
 H        -2.795450         2.221245         0.528874
 H        -2.922511         2.109723        -1.131659
 H        -5.080391         1.293482         0.529505
 H        -4.551564         0.852894        -2.502976
 H        -6.299236         0.793509        -1.759618
