19
Iteration:  3028
 C         0.849531         0.048724        -0.977311
 C        -0.509135         0.176079        -0.371753
 C        -1.626558         0.084680         0.098269
 C        -2.879540         0.008986         0.885547
 O        -2.682499         0.004793         2.310863
 C        -3.864728         1.130927         0.377199
 C        -4.380300         0.972296        -1.050094
 C        -3.826584         1.765952        -2.224399
 O        -5.027622         2.139492        -1.595274
 H         1.364401         1.062348        -1.025489
 H         1.498550        -0.477698        -0.247399
 H         0.727091        -0.436008        -1.995161
 H        -3.278432        -0.991033         0.683611
 H        -2.287702         0.909330         2.546874
 H        -4.623420         1.108917         1.070765
 H        -3.324842         2.089325         0.406957
 H        -5.025799         0.096198        -1.209308
 H        -2.935990         2.367773        -2.105749
 H        -3.895886         1.293554        -3.142482
