19
Iteration:   439
 C         1.321031        -0.103263        -0.229527
 C        -0.033425         0.133155        -0.051429
 C        -1.227334         0.037682        -0.067686
 C        -2.654763        -0.004358         0.163216
 O        -2.889349        -0.341024         1.628667
 C        -3.273841         1.322139        -0.123063
 C        -4.781202         1.497902        -0.499714
 C        -5.196821         1.233724        -1.877733
 O        -5.005811         2.639169        -1.403840
 H         1.583547        -0.073423        -1.321523
 H         1.951653         0.680299         0.240784
 H         1.633137        -1.050974         0.280725
 H        -3.051802        -0.862009        -0.359895
 H        -3.809186        -0.100000         1.757641
 H        -2.896842         1.838482         0.839318
 H        -2.739203         1.749028        -1.013264
 H        -5.447707         1.310193         0.212089
 H        -4.465217         0.798540        -2.592676
 H        -6.261929         1.132333        -2.141419
