19
Iteration:  4743charge 0 multiplicity 1
 C         0.999852        -0.478173        -0.670192
 C        -0.305372        -0.125531        -0.260096
 C        -1.394732        -0.098484         0.224305
 C        -2.780585         0.151156         0.797879
 O        -2.700194         0.450449         2.258264
 C        -3.590252         1.286237         0.054426
 C        -4.622522         1.144963        -1.060357
 C        -4.266795         1.600817        -2.407293
 O        -5.218732         2.349263        -1.505507
 H         1.695670         0.423580        -0.717074
 H         1.407649        -1.198704        -0.002298
 H         0.933607        -0.935110        -1.670729
 H        -3.377017        -0.730086         0.617756
 H        -1.884289         0.314305         2.665035
 H        -4.254917         1.562511         0.935812
 H        -2.832275         2.081772        -0.018153
 H        -5.339209         0.338993        -0.910773
 H        -3.295938         2.130014        -2.521860
 H        -4.820564         1.052215        -3.284597
