19
Iteration:   449charge 0 multiplicity 1
 C         1.442257        -0.082415        -0.268189
 C        -0.035624         0.041193        -0.127665
 C        -1.239957         0.049026         0.054532
 C        -2.662289        -0.031277         0.216181
 O        -2.882217        -0.347756         1.645365
 C        -3.352644         1.300966        -0.153028
 C        -4.818881         1.516708        -0.480440
 C        -5.195326         1.280892        -1.928575
 O        -4.989074         2.629677        -1.411032
 H         1.773274        -0.013815        -1.336642
 H         1.877157         0.782675         0.261329
 H         1.866314        -1.031413         0.161764
 H        -3.136132        -0.853163        -0.356585
 H        -3.793015        -0.064443         1.896910
 H        -3.266870         2.001107         0.725782
 H        -2.876139         1.939612        -0.942917
 H        -5.559718         1.467926         0.231619
 H        -4.379610         1.078091        -2.667339
 H        -6.195744         0.872557        -2.208181
