19
Iteration:  3312charge 0 multiplicity 1
 C         1.437615         0.016442        -0.281463
 C        -0.050773         0.087011        -0.043093
 C        -1.159518        -0.039673         0.370376
 C        -2.638600        -0.024025         0.260818
 O        -3.223983        -0.229933         1.531270
 C        -3.079113         1.281533        -0.338030
 C        -4.640632         1.452684        -0.597821
 C        -5.262653         1.240178        -1.862314
 O        -5.051730         2.546120        -1.401570
 H         2.057385         0.157523         0.616093
 H         1.620530        -0.938668        -0.633584
 H         1.752630         0.686135        -1.085224
 H        -3.010655        -0.904745        -0.290268
 H        -3.589048         0.648834         1.841818
 H        -2.644319         2.002144         0.391524
 H        -2.710137         1.509830        -1.350139
 H        -5.192142         1.213783         0.322509
 H        -4.807234         0.985720        -2.787740
 H        -6.334083         1.000892        -1.929833
