19
Iteration:  2172
 C         1.467526        -0.237334         0.427579
 C         0.079060        -0.134116         0.050077
 C        -1.105091         0.054762        -0.099151
 C        -2.504481         0.265816        -0.158307
 O        -3.031339        -0.096668         1.096500
 C        -2.995541         1.640306        -0.719625
 C        -4.544202         1.731553        -0.445387
 C        -5.632630         0.905227        -1.166314
 O        -5.416228         2.238896        -1.450665
 H         1.474261        -0.909886         1.353851
 H         2.081024        -0.801006        -0.366121
 H         2.032326         0.751911         0.471905
 H        -2.975559        -0.421878        -0.842670
 H        -2.850156         0.685993         1.709504
 H        -2.564071         2.436166        -0.132041
 H        -2.620725         1.882337        -1.748411
 H        -4.765828         2.066678         0.557883
 H        -5.256696         0.331973        -2.039284
 H        -6.570261         0.573481        -0.721744
