19
Iteration:   613charge 0 multiplicity 1
 C         1.323028        -0.104122        -0.582402
 C         0.069110        -0.039598         0.130240
 C        -1.173231         0.026900         0.263334
 C        -2.678540         0.037171         0.368409
 O        -3.038051        -0.344644         1.792780
 C        -3.275300         1.395890        -0.126051
 C        -4.712696         1.354188        -0.705603
 C        -5.007703         1.441891        -2.172611
 O        -5.240554         2.642258        -1.286466
 H         1.213778         0.495219        -1.484939
 H         2.114020         0.351803        -0.035826
 H         1.604695        -1.088252        -0.927159
 H        -3.086994        -0.650216        -0.363407
 H        -2.393281        -1.024798         1.953980
 H        -3.295104         2.098233         0.636989
 H        -2.725186         1.846998        -0.893128
 H        -5.514928         0.970455        -0.242079
 H        -4.119249         1.448470        -2.821313
 H        -5.874208         1.038534        -2.736142
