19
Iteration:  3548
 C         1.457160        -0.415253         0.542589
 C         0.035477         0.014402         0.268739
 C        -1.076840         0.289852        -0.099922
 C        -2.497091         0.168499        -0.294268
 O        -3.229253        -0.110417         0.895032
 C        -3.075437         1.533194        -0.886563
 C        -4.424950         1.956066        -0.514025
 C        -5.450514         0.980490        -0.754618
 O        -5.435400         2.145132        -1.559982
 H         1.555200        -1.381206         0.971134
 H         1.927303        -0.551134        -0.461772
 H         2.129790         0.227300         1.055410
 H        -2.695867        -0.693814        -0.985995
 H        -2.574527        -0.184111         1.562580
 H        -2.552693         2.400355        -0.313269
 H        -2.891496         1.406851        -1.963998
 H        -4.447642         2.568285         0.346191
 H        -5.136607         0.134791        -1.372212
 H        -6.304177         0.787877        -0.107391
