19
Iteration:  4315
 C         0.554006        -0.187243        -1.180984
 C        -0.645560        -0.102726        -0.307697
 C        -1.715853         0.214615         0.188876
 C        -2.882988         0.194611         1.009857
 O        -2.599320         0.611125         2.337391
 C        -3.964790         1.122794         0.543873
 C        -4.455629         1.067494        -0.967911
 C        -3.717019         1.180013        -2.204976
 O        -4.635539         2.173410        -1.826914
 H         0.481174         0.446399        -2.195637
 H         1.528227         0.238419        -0.803616
 H         0.889259        -1.179261        -1.512192
 H        -3.250986        -0.844560         0.905725
 H        -1.658427         0.950613         2.339807
 H        -4.757919         0.777576         1.213712
 H        -3.563753         2.149325         0.647979
 H        -5.299185         0.447192        -1.113859
 H        -2.711523         1.494747        -2.151655
 H        -3.946252         0.697798        -3.185952
