19
Iteration:  1784
 C         0.840742        -0.107915        -0.899825
 C        -0.561695        -0.133400        -0.486935
 C        -1.634017         0.095516         0.026086
 C        -2.859893         0.123501         0.836365
 O        -2.539829         0.337344         2.225402
 C        -3.984416         1.130218         0.416800
 C        -4.511266         1.009409        -0.971321
 C        -3.806990         1.626782        -2.128346
 O        -4.945722         2.191465        -1.589642
 H         1.196740         0.926688        -0.816300
 H         1.331616        -0.772241        -0.158855
 H         1.110423        -0.505686        -1.910378
 H        -3.406941        -0.856807         0.873872
 H        -1.949689         1.130884         2.209634
 H        -4.822551         0.925112         1.085172
 H        -3.633193         2.120643         0.539009
 H        -5.123027         0.118979        -1.250612
 H        -2.856204         2.040737        -1.928240
 H        -3.854763         1.075904        -3.053270
