19
Iteration:  2418
 C         1.501447         0.240979         0.177842
 C         0.084900        -0.060204        -0.101327
 C        -1.145968        -0.144734         0.044124
 C        -2.626512        -0.003667         0.016591
 O        -3.325527        -0.398574         1.168414
 C        -2.970472         1.359883        -0.573516
 C        -4.436031         1.726041        -0.436030
 C        -5.669022         1.200433        -1.286748
 O        -5.095190         2.425874        -1.498237
 H         2.123888        -0.661752         0.202888
 H         1.911169         1.013928        -0.477109
 H         1.467458         0.456807         1.257606
 H        -2.963447        -0.653216        -0.733115
 H        -2.945662         0.119988         1.950063
 H        -2.363857         2.100289         0.002818
 H        -2.660092         1.369598        -1.609800
 H        -4.621623         2.022726         0.603502
 H        -5.506009         0.434321        -2.123555
 H        -6.570326         1.114945        -0.645599
