19
Iteration:  1014
 C         1.537198        -0.178141         0.082649
 C         0.079446         0.076693         0.070116
 C        -1.123826         0.138829         0.085527
 C        -2.522301         0.028211        -0.069743
 O        -3.389502        -0.317582         1.095320
 C        -3.048807         1.350728        -0.672495
 C        -4.493639         1.639603        -0.334975
 C        -5.551453         1.180534        -1.343217
 O        -5.185903         2.529929        -1.309591
 H         1.848752        -0.133055         1.191182
 H         1.833912        -1.217392        -0.229465
 H         2.180147         0.566527        -0.479942
 H        -2.829595        -0.720065        -0.903990
 H        -2.878812         0.114092         1.847579
 H        -2.510805         2.229180        -0.245190
 H        -2.679386         1.235991        -1.711387
 H        -4.558129         1.760444         0.683319
 H        -5.098642         0.580535        -2.137220
 H        -6.628232         0.944432        -1.146449
