19
Iteration:  2807
 C         0.375892         0.212949        -1.448729
 C        -0.737119         0.175165        -0.496415
 C        -1.607963         0.059868         0.300081
 C        -2.883341        -0.049752         1.027662
 O        -2.701863         0.198029         2.473242
 C        -4.030340         0.843155         0.373434
 C        -4.032884         0.964818        -1.149952
 C        -3.415318         1.973507        -1.947855
 O        -4.834966         2.041810        -1.663782
 H        -0.107826         0.405544        -2.456934
 H         1.174065         0.824272        -1.004337
 H         0.882705        -0.769868        -1.610279
 H        -3.239324        -1.119869         1.015350
 H        -3.323172        -0.421552         2.969762
 H        -4.961195         0.512845         0.761387
 H        -3.796259         1.761797         0.943514
 H        -4.043082        -0.040322        -1.689638
 H        -2.910182         2.813054        -1.549531
 H        -3.091269         1.634618        -2.942572
