19
Iteration:  4014
 C         1.168065        -0.386989        -0.422667
 C        -0.235599        -0.064997        -0.260826
 C        -1.363795         0.183810         0.177884
 C        -2.707850         0.315288         0.652636
 O        -2.621232         0.306293         2.008711
 C        -3.466048         1.601195         0.052867
 C        -4.614168         1.169124        -0.857898
 C        -4.676189         1.162252        -2.293993
 O        -5.334497         2.178198        -1.553888
 H         1.512286        -1.008155        -1.294914
 H         1.878704         0.460233        -0.361642
 H         1.473944        -1.070491         0.527224
 H        -3.307259        -0.480391         0.123003
 H        -2.753437        -0.696089         2.034402
 H        -3.749787         2.327017         0.875603
 H        -2.756566         2.154061        -0.528131
 H        -5.142371         0.392449        -0.318049
 H        -3.768160         1.502280        -2.687091
 H        -5.342863         0.519653        -2.949046
