19
Iteration:   876charge 0 multiplicity 1
 C         1.462991         0.037894         0.472925
 C         0.046229        -0.085019        -0.085613
 C        -1.133355        -0.203187        -0.263032
 C        -2.579762        -0.056176        -0.240006
 O        -3.117176        -0.127320         1.079145
 C        -3.049962         1.321338        -0.799850
 C        -4.515421         1.588473        -0.337298
 C        -5.580014         1.220804        -1.286328
 O        -5.242512         2.635248        -1.148533
 H         1.490434         0.943090         1.028824
 H         1.497550        -0.722038         1.241643
 H         2.277549         0.024488        -0.217101
 H        -3.057386        -0.880103        -0.698387
 H        -2.435791        -0.436855         1.683094
 H        -2.471177         2.087896        -0.324840
 H        -2.715486         1.212525        -1.805422
 H        -4.617405         1.658104         0.835894
 H        -5.598009         0.727280        -2.318806
 H        -6.423219         0.967814        -0.601422
