19
Iteration:   903charge 0 multiplicity 1
 C         1.259322         0.013430         0.588524
 C         0.036358         0.055813        -0.268369
 C        -1.155643        -0.172753        -0.388866
 C        -2.596882        -0.119066        -0.227259
 O        -3.054296        -0.166889         1.196032
 C        -3.064733         1.345200        -0.819039
 C        -4.464181         1.640119        -0.361507
 C        -5.567768         1.141008        -1.234328
 O        -5.132331         2.608872        -1.152655
 H         1.254452         0.830685         1.385998
 H         1.221760        -0.980051         1.105109
 H         2.214219         0.154748        -0.002543
 H        -3.166253        -1.024309        -0.726116
 H        -2.261923        -0.277326         1.709307
 H        -2.498457         2.170132        -0.300000
 H        -2.665197         1.244895        -1.836990
 H        -4.480402         1.881019         0.651824
 H        -5.445979         0.594662        -2.174303
 H        -6.538574         1.085703        -0.733478
