19
Iteration:  4678
 C         0.986795        -0.534651        -0.648136
 C        -0.408906        -0.361942        -0.221663
 C        -1.555246         0.008280         0.070432
 C        -2.783549         0.249403         0.761344
 O        -2.550419         0.601660         2.182230
 C        -3.637809         1.368110         0.208635
 C        -4.434407         1.019551        -1.090088
 C        -4.140409         1.918993        -2.217316
 O        -5.364035         2.012965        -1.586727
 H         1.387871         0.496890        -0.814354
 H         1.480853        -1.084482         0.100522
 H         1.012043        -1.036030        -1.627925
 H        -3.325123        -0.723154         0.830246
 H        -1.904365        -0.188991         2.320728
 H        -4.508893         1.627226         0.912569
 H        -3.193403         2.373952         0.110212
 H        -4.954974         0.087389        -1.244697
 H        -3.460070         2.702742        -1.920476
 H        -4.215805         1.496469        -3.276457
