19
Iteration:  3350
 C         1.546150         0.091397        -0.080820
 C         0.030081        -0.153606         0.204428
 C        -1.222861        -0.047145         0.048798
 C        -2.699933        -0.012333         0.140854
 O        -3.207246        -0.199173         1.457487
 C        -3.121235         1.384460        -0.454409
 C        -4.577087         1.580301        -0.501639
 C        -5.440745         1.116652        -1.678396
 O        -5.078477         2.579226        -1.506548
 H         2.346948         0.168930         0.690793
 H         1.800982        -0.862874        -0.710847
 H         1.737717         1.015616        -0.674396
 H        -3.011632        -0.854943        -0.543675
 H        -2.434111        -0.285534         2.108241
 H        -2.563758         2.265452         0.076081
 H        -2.660566         1.403297        -1.474867
 H        -5.213736         1.649402         0.372719
 H        -5.081979         0.502414        -2.544249
 H        -6.522332         0.994394        -1.396905
