19
Iteration:  4851
 C         0.970698        -0.305929        -0.799312
 C        -0.482176        -0.006290        -0.383586
 C        -1.604064         0.082929         0.133976
 C        -2.848265         0.211432         0.728412
 O        -2.811740         0.112413         2.184170
 C        -3.582254         1.615714         0.299247
 C        -4.689234         1.379561        -0.737684
 C        -4.218574         1.040518        -2.112454
 O        -4.719564         2.317007        -1.787601
 H         1.583743         0.583413        -0.432256
 H         1.265484        -1.176986        -0.276770
 H         0.982437        -0.456362        -1.886733
 H        -3.584091        -0.670873         0.444127
 H        -2.087202        -0.372794         2.474462
 H        -3.760443         2.297844         1.065077
 H        -2.758540         1.970866        -0.346068
 H        -5.622814         0.999421        -0.318450
 H        -3.241199         1.023734        -2.575088
 H        -4.817356         0.320685        -2.762654
