19
Iteration:  2331
 C         1.439643        -0.122091         0.654737
 C         0.033044         0.043804         0.118854
 C        -1.103535         0.139358        -0.196009
 C        -2.605704         0.011515        -0.425622
 O        -3.203535        -0.146567         0.877350
 C        -2.900804         1.377834        -0.940375
 C        -4.350080         1.783560        -0.421907
 C        -5.573122         1.053632        -0.764097
 O        -5.432657         2.304029        -1.395417
 H         1.704587        -1.106542         0.926934
 H         2.207617         0.081632        -0.060544
 H         1.557476         0.611931         1.440145
 H        -2.799227        -0.823566        -1.091682
 H        -2.314791        -0.290325         1.325390
 H        -2.165317         2.218400        -0.573748
 H        -3.027157         1.538224        -2.035625
 H        -4.581668         2.295148         0.517549
 H        -5.548511         0.158544        -1.445634
 H        -6.137513         0.938893         0.212712
