19
Iteration:  2597
 C         1.198550        -0.197621        -0.489718
 C        -0.104910         0.106752        -0.183803
 C        -1.277689         0.181082         0.212742
 C        -2.713511         0.065965         0.412483
 O        -2.903686        -0.257997         1.882824
 C        -3.402982         1.392920         0.115611
 C        -4.530404         1.307812        -0.859897
 C        -4.643863         1.613515        -2.293346
 O        -5.438473         2.262634        -1.312357
 H         1.218171        -0.696752        -1.462375
 H         1.786147         0.767456        -0.507150
 H         1.824582        -0.869810         0.113749
 H        -3.216105        -0.751271        -0.085428
 H        -2.046312        -0.081622         2.343003
 H        -3.710980         1.593649         1.172521
 H        -2.603928         2.278641        -0.004399
 H        -5.136008         0.393229        -0.672451
 H        -3.839633         2.262446        -2.631444
 H        -5.111469         0.973818        -3.084384
