19
Iteration:  2332
 C         1.441406        -0.115527         0.655674
 C         0.023203         0.045053         0.124399
 C        -1.103614         0.134104        -0.191138
 C        -2.616153         0.005784        -0.423642
 O        -3.195304        -0.148410         0.875857
 C        -2.896461         1.377172        -0.931598
 C        -4.346557         1.786933        -0.416425
 C        -5.576562         1.050019        -0.772717
 O        -5.427733         2.306013        -1.395870
 H         1.666553        -1.117787         0.873458
 H         2.193066         0.111246        -0.098675
 H         1.588248         0.628257         1.414932
 H        -2.829279        -0.856231        -1.119721
 H        -2.331931        -0.274037         1.331087
 H        -2.160832         2.237678        -0.580992
 H        -3.024292         1.545130        -2.054131
 H        -4.546299         2.316980         0.510699
 H        -5.575215         0.143912        -1.437647
 H        -6.124383         0.933467         0.181310
