19
Iteration:  4607charge 0 multiplicity 1
 C         0.792591        -0.627986        -0.846666
 C        -0.636152        -0.176207        -0.323009
 C        -1.661547         0.205441         0.114581
 C        -2.948829         0.240476         0.915465
 O        -2.487903         0.590761         2.322929
 C        -3.796284         1.376487         0.284644
 C        -4.066494         1.018859        -1.189048
 C        -4.002083         2.102229        -2.197207
 O        -5.205697         1.651151        -1.617133
 H         1.419242         0.111206        -1.252507
 H         1.360787        -1.183111        -0.031285
 H         0.733332        -1.359015        -1.677471
 H        -3.579100        -0.631301         0.865830
 H        -1.536881         0.166078         2.442338
 H        -4.641702         1.712352         0.790615
 H        -3.201929         2.301367         0.268242
 H        -3.947957        -0.027505        -1.565291
 H        -3.744852         3.122142        -1.756309
 H        -3.934250         1.836920        -3.199930
