19
Iteration:  1532
 C         0.363072        -0.034796        -1.491849
 C        -0.821563        -0.008772        -0.615741
 C        -1.603418         0.001117         0.264856
 C        -2.895342         0.050515         1.105841
 O        -2.791059         0.628691         2.400409
 C        -4.005966         0.786243         0.399385
 C        -4.134288         0.802073        -1.129449
 C        -3.326479         1.825709        -1.815159
 O        -4.707788         2.138641        -1.609719
 H         0.003091         0.062420        -2.457453
 H         1.026179         0.744729        -1.256699
 H         0.890897        -0.968574        -1.410274
 H        -3.280135        -0.959667         1.283652
 H        -2.274124         1.425354         2.343033
 H        -5.007006         0.289985         0.656312
 H        -4.170468         1.778362         0.807155
 H        -4.461775        -0.120136        -1.651853
 H        -2.532753         2.492287        -1.468434
 H        -3.105203         1.510515        -2.821690
