19
Iteration:  1361
 C         0.816711        -0.171190        -1.079245
 C        -0.349113         0.081157        -0.234609
 C        -1.478074        -0.077342         0.305506
 C        -2.865450         0.121222         0.798653
 O        -2.851537         0.056697         2.281616
 C        -3.566259         1.409874         0.205789
 C        -4.388187         1.028563        -0.960110
 C        -4.038727         1.748688        -2.272429
 O        -5.191231         2.176002        -1.556968
 H         0.531503        -1.008193        -1.798498
 H         1.085057         0.833671        -1.487716
 H         1.752157        -0.329389        -0.508823
 H        -3.324248        -0.802743         0.603656
 H        -1.968338         0.204040         2.656825
 H        -4.120245         1.563140         1.133772
 H        -2.744141         2.120078         0.076273
 H        -4.775589         0.014214        -0.821740
 H        -3.121387         2.341718        -2.128415
 H        -4.204256         1.238909        -3.197497
