19
Iteration:   595
 C         1.331505        -0.008708        -0.616489
 C        -0.029277        -0.209771        -0.036240
 C        -1.163639         0.002410         0.420067
 C        -2.621008         0.094391         0.468587
 O        -3.127828        -0.315129         1.720958
 C        -3.294113         1.484503        -0.116585
 C        -4.699554         1.353518        -0.742291
 C        -4.978576         1.481389        -2.192734
 O        -5.175118         2.515462        -1.260526
 H         1.351953         0.487417        -1.637953
 H         2.043998         0.587583         0.043099
 H         1.754723        -0.995091        -0.993119
 H        -2.980072        -0.729312        -0.225282
 H        -2.531475        -0.873232         2.208464
 H        -3.358503         2.358415         0.710549
 H        -2.403037         1.752886        -0.806226
 H        -5.324164         0.626886        -0.076987
 H        -4.298996         1.736867        -2.995543
 H        -5.952494         1.060434        -2.518983
