19
Iteration:   370charge 0 multiplicity 1
 C         1.631768        -0.083422         0.029153
 C         0.108071        -0.277963        -0.156221
 C        -1.108685        -0.030971        -0.067404
 C        -2.575921         0.127439        -0.096511
 O        -3.266946        -0.243888         1.392521
 C        -3.092154         1.551217        -0.274400
 C        -4.694486         1.715502        -0.371240
 C        -5.276245         1.109766        -1.603342
 O        -5.319050         2.539001        -1.317292
 H         2.242009        -0.300723        -0.868715
 H         1.828982         0.977320         0.271923
 H         1.990828        -0.624006         0.944305
 H        -2.989832        -0.508704        -0.904915
 H        -3.892752        -0.983012         1.169088
 H        -2.834120         2.325630         0.453466
 H        -2.662836         1.898613        -1.310165
 H        -5.210087         1.475383         0.618570
 H        -4.672298         0.571394        -2.399936
 H        -6.331615         0.703189        -1.436630
