19
Iteration:  4411
 C         0.327081        -0.251287        -1.296853
 C        -0.743506        -0.238406        -0.381063
 C        -1.735607         0.058871         0.273083
 C        -2.909617         0.349285         1.190522
 O        -2.520793         0.506660         2.517579
 C        -3.864252         1.378296         0.380408
 C        -4.030185         0.903051        -1.093247
 C        -3.513535         1.800111        -2.166795
 O        -4.980936         1.718249        -1.852856
 H         0.286323         0.582963        -2.015357
 H         1.349595        -0.142645        -0.830967
 H         0.429325        -1.177723        -1.875941
 H        -3.534553        -0.564959         1.203271
 H        -2.176218         1.473842         2.673355
 H        -4.879445         1.422122         0.775852
 H        -3.566954         2.493458         0.221397
 H        -4.008433        -0.185537        -1.192594
 H        -3.033158         2.779613        -2.035228
 H        -3.188200         1.298740        -3.142768
