19
Iteration:   722
 C         1.486077        -0.103851        -0.045860
 C        -0.038066        -0.190579         0.090054
 C        -1.229840        -0.153399        -0.192555
 C        -2.656347         0.216560         0.018529
 O        -2.955645        -0.315471         1.327627
 C        -3.146378         1.623182        -0.071258
 C        -4.712173         1.592786        -0.419114
 C        -5.123093         1.231813        -1.788907
 O        -5.367237         2.521042        -1.328328
 H         1.666424         0.718425        -0.701498
 H         2.076003         0.030297         0.815915
 H         1.889026        -1.001221        -0.459263
 H        -3.384597        -0.385295        -0.560466
 H        -2.516629        -1.190303         1.312429
 H        -2.852637         2.118261         0.774736
 H        -2.856392         2.252893        -0.855653
 H        -5.382834         1.396382         0.367305
 H        -4.387924         1.160012        -2.587206
 H        -6.047239         0.606457        -1.923306
