19
Iteration:  4703charge 0 multiplicity 1
 C         1.054294        -0.506846        -0.668543
 C        -0.357709        -0.336156        -0.189358
 C        -1.526880         0.043720         0.150594
 C        -2.832704         0.165850         0.733175
 O        -2.639744         0.627067         2.122099
 C        -3.696474         1.305917         0.191202
 C        -4.406888         1.065365        -1.141243
 C        -4.195139         1.759024        -2.381142
 O        -5.270655         2.167914        -1.361029
 H         1.508644         0.446364        -0.844372
 H         1.596593        -1.202199         0.068825
 H         0.981347        -0.987105        -1.675771
 H        -3.290216        -0.858455         0.839863
 H        -1.970397        -0.133880         2.352660
 H        -4.552572         1.536438         0.900110
 H        -3.282555         2.282031         0.147138
 H        -4.870744         0.062524        -1.334109
 H        -3.374833         2.476497        -2.521044
 H        -4.634837         1.303056        -3.162944
