19
Iteration:  4110charge 0 multiplicity 1
 C         0.983660        -0.132780        -0.888811
 C        -0.312652         0.000664        -0.160679
 C        -1.423170         0.160815         0.279753
 C        -2.821687         0.170640         0.820767
 O        -2.826071         0.236858         2.320144
 C        -3.414689         1.460972         0.086230
 C        -4.623202         1.292850        -0.844995
 C        -4.481339         1.009512        -2.238488
 O        -4.978988         2.236657        -1.826227
 H         0.789395        -0.317309        -1.969216
 H         1.580051         0.711828        -0.747748
 H         1.505029        -0.982602        -0.471214
 H        -3.442784        -0.641903         0.340510
 H        -2.213781        -0.494516         2.731190
 H        -3.389037         2.179047         0.945369
 H        -2.593449         1.855800        -0.504246
 H        -5.445220         0.746153        -0.206028
 H        -3.567476         1.117400        -2.712645
 H        -5.216518         0.303596        -2.673947
