19
Iteration:  3215charge 0 multiplicity 1
 C         1.361009         0.043650        -0.514895
 C        -0.032004        -0.147342         0.026831
 C        -1.297678        -0.109293         0.154993
 C        -2.758082         0.037992         0.515034
 O        -2.988796        -0.056262         1.954583
 C        -3.231909         1.430451        -0.082755
 C        -4.624912         1.237045        -0.894888
 C        -4.798872         1.491053        -2.276090
 O        -5.350701         2.434366        -1.324573
 H         1.936361         0.774742         0.060974
 H         1.773844        -0.961613        -0.517472
 H         1.178476         0.449494        -1.548199
 H        -3.392869        -0.822195         0.188768
 H        -2.954698        -1.067553         2.087902
 H        -3.374479         2.274931         0.727231
 H        -2.435072         1.844973        -0.795448
 H        -5.065999         0.360263        -0.409852
 H        -4.038479         1.895686        -2.879495
 H        -5.605459         0.994436        -2.846605
