19
Iteration:  3738charge 0 multiplicity 1
 C         1.463497        -0.067600        -0.249019
 C        -0.012283        -0.111096        -0.061924
 C        -1.176245        -0.056875         0.222190
 C        -2.650009         0.019485         0.302803
 O        -3.264934         0.213776         1.665824
 C        -3.072813         1.396350        -0.404496
 C        -4.607007         1.492980        -0.531363
 C        -5.374419         1.017722        -1.763337
 O        -4.983650         2.438632        -1.619296
 H         1.794641        -1.104304        -0.448952
 H         1.665468         0.588067        -1.015206
 H         1.774545         0.306431         0.734153
 H        -3.078748        -0.844693        -0.222838
 H        -2.959623        -0.664913         2.075410
 H        -2.771501         2.269353         0.348229
 H        -2.625777         1.322879        -1.392813
 H        -5.199427         1.685812         0.416154
 H        -4.979744         0.370023        -2.524725
 H        -6.483287         0.946899        -1.630070
