19
Iteration:  4700charge 0 multiplicity 1
 C         1.044801        -0.513947        -0.663284
 C        -0.391003        -0.339341        -0.179836
 C        -1.520617         0.035350         0.141696
 C        -2.796630         0.185576         0.731647
 O        -2.622022         0.612568         2.116868
 C        -3.705471         1.307403         0.184491
 C        -4.405437         1.036792        -1.124625
 C        -4.167849         1.782713        -2.389724
 O        -5.296656         2.168500        -1.368780
 H         1.454967         0.505253        -0.813538
 H         1.503105        -1.128346         0.042591
 H         0.927075        -0.984645        -1.638794
 H        -3.269436        -0.812455         0.799457
 H        -2.043281        -0.038330         2.433858
 H        -4.516480         1.504589         1.009538
 H        -3.251067         2.317292         0.091724
 H        -4.775062         0.027481        -1.303689
 H        -3.342495         2.491336        -2.431911
 H        -4.675394         1.291675        -3.280498
