19
Iteration:  2955
 C         0.325777         0.481255        -1.415021
 C        -0.779846         0.021936        -0.550322
 C        -1.696046        -0.211232         0.200839
 C        -2.988511        -0.014665         1.025833
 O        -2.779312         0.258232         2.443369
 C        -3.805625         1.068820         0.417866
 C        -4.137357         0.870963        -1.046610
 C        -3.330910         1.785584        -1.933193
 O        -4.698367         1.957010        -1.665527
 H         0.254497         1.485051        -1.727072
 H         1.173740         0.554158        -0.734227
 H         0.388799        -0.095731        -2.309846
 H        -3.438701        -1.018049         0.915633
 H        -3.621753        -0.015505         2.824735
 H        -4.848926         1.170582         0.939341
 H        -3.268319         2.070597         0.458457
 H        -4.219881        -0.133485        -1.423459
 H        -2.726298         2.621037        -1.512080
 H        -3.077095         1.462031        -2.983435
