19
Iteration:  2916
 C        -0.043210         0.462867        -1.548602
 C        -0.969982         0.209415        -0.515570
 C        -1.744714         0.048109         0.369881
 C        -2.935316        -0.140680         1.102188
 O        -2.699551         0.110408         2.549859
 C        -3.982753         0.907269         0.485789
 C        -3.911311         0.905591        -1.107489
 C        -3.103487         1.805930        -1.982499
 O        -4.547231         1.985253        -1.801890
 H        -0.170713         1.358356        -2.281076
 H         1.060970         0.645828        -1.240010
 H         0.152497        -0.511205        -2.103862
 H        -3.423737        -1.159593         1.059851
 H        -3.257533         0.824624         2.915103
 H        -4.892092         0.643336         0.945824
 H        -3.633690         1.842770         0.852068
 H        -4.116517        -0.108350        -1.580298
 H        -2.496891         2.691331        -1.846516
 H        -2.955635         1.438090        -3.041763
