19
Iteration:  2271
 C         1.449273        -0.286677         0.772521
 C         0.079285        -0.133133         0.242166
 C        -0.936819         0.251198        -0.247318
 C        -2.415330         0.156321        -0.483674
 O        -3.004593         0.001916         0.760678
 C        -3.072448         1.489758        -1.038464
 C        -4.529228         1.805408        -0.451111
 C        -5.691932         0.986587        -0.653346
 O        -5.541719         2.245446        -1.360089
 H         1.449524        -1.233915         1.428937
 H         2.095161        -0.292061        -0.157236
 H         1.958574         0.430715         1.478167
 H        -2.575372        -0.726900        -1.054930
 H        -2.805397        -0.876892         1.088193
 H        -2.304043         2.137732        -0.710321
 H        -3.105293         1.560365        -2.127555
 H        -4.589416         2.498335         0.377962
 H        -5.542960         0.096364        -1.277842
 H        -6.437039         0.817842         0.088685
