19
Iteration:  2571charge 0 multiplicity 1
 C         1.245803        -0.109402        -0.459814
 C        -0.100612         0.123451        -0.004964
 C        -1.280081         0.020833         0.027146
 C        -2.726259         0.183878         0.432012
 O        -2.956809        -0.351001         1.774772
 C        -3.354157         1.508474        -0.012885
 C        -4.595192         1.168326        -0.804668
 C        -4.674888         1.505694        -2.168312
 O        -5.328955         2.376021        -1.236011
 H         1.084289        -0.671068        -1.414360
 H         1.869807         0.759219        -0.711850
 H         1.990327        -0.663017         0.175060
 H        -3.398295        -0.581792        -0.071587
 H        -2.659371         0.331494         2.400402
 H        -3.511229         2.134568         0.824285
 H        -2.703082         2.000311        -0.607246
 H        -5.219427         0.335363        -0.549435
 H        -3.719183         1.818009        -2.655044
 H        -5.338542         0.907370        -2.830683
