19
Iteration:  1243
 C         1.218198        -0.156896        -0.582251
 C        -0.173615        -0.065938        -0.172536
 C        -1.403400         0.003560         0.051603
 C        -2.776268         0.069472         0.494311
 O        -2.826044         0.037895         1.916414
 C        -3.466203         1.470193         0.094524
 C        -4.711683         1.256298        -0.751207
 C        -4.601055         1.256981        -2.171696
 O        -5.084292         2.500948        -1.367517
 H         1.343239        -1.229469        -0.556565
 H         1.446241         0.212287        -1.561059
 H         1.901615         0.276420         0.114350
 H        -3.553900        -0.556037         0.028430
 H        -2.464554        -0.870808         2.136680
 H        -3.736711         1.838685         1.085100
 H        -2.973979         2.258570        -0.543893
 H        -5.586551         0.781083        -0.325542
 H        -3.465921         1.366430        -2.514236
 H        -5.365766         0.900574        -2.919247
