19
Iteration:  3290charge 0 multiplicity 1
 C         1.449860        -0.006933        -0.396164
 C         0.000607         0.100082        -0.090213
 C        -1.220624         0.109471         0.227438
 C        -2.652712        -0.042895         0.413631
 O        -3.375528        -0.249263         1.684987
 C        -3.120522         1.286603        -0.335212
 C        -4.621381         1.354421        -0.667031
 C        -5.076491         1.245313        -1.984703
 O        -5.052424         2.569943        -1.273396
 H         1.988603         0.234990         0.528720
 H         1.663763        -0.996235        -0.600296
 H         1.727156         0.544609        -1.275709
 H        -2.904413        -1.015541        -0.043693
 H        -3.699025         0.634211         1.857502
 H        -2.799434         2.189452         0.275850
 H        -2.626416         1.309928        -1.327463
 H        -5.200680         1.118854         0.247803
 H        -4.337064         0.984554        -2.675454
 H        -6.069182         0.905016        -2.306525
