19
Iteration:  1460
 C         0.714074        -0.060867        -1.109133
 C        -0.751056        -0.016142        -0.519364
 C        -1.798212        -0.059109        -0.030505
 C        -2.952776        -0.014548         0.885522
 O        -2.485438         0.500054         2.152145
 C        -4.135245         1.000757         0.545700
 C        -4.401552         0.976025        -0.981482
 C        -3.469589         1.728903        -1.742464
 O        -4.844739         2.129007        -1.719366
 H         0.730786        -0.386951        -2.255553
 H         1.155234         1.012947        -0.902120
 H         1.412964        -0.711595        -0.462912
 H        -3.257244        -1.076807         1.087326
 H        -1.909541         1.200150         1.876405
 H        -4.968314         0.776660         1.206387
 H        -3.849404         2.093445         0.752061
 H        -4.587775         0.067581        -1.552588
 H        -2.856266         2.530121        -1.269905
 H        -3.045726         1.360570        -2.711049
