19
Iteration:  2797
 C         0.401924         0.173801        -1.335505
 C        -0.730470         0.125516        -0.460391
 C        -1.634718         0.032491         0.309125
 C        -2.864977        -0.134572         1.010640
 O        -2.621275         0.222517         2.364814
 C        -3.991156         0.876616         0.415675
 C        -4.063755         0.981962        -1.083510
 C        -3.430402         2.019127        -1.976607
 O        -4.908324         2.032333        -1.701900
 H         0.105094         0.688243        -2.296928
 H         1.062021         1.019831        -1.135749
 H         0.909720        -0.804899        -1.408755
 H        -3.122053        -1.207498         0.879407
 H        -3.411559        -0.247602         2.759217
 H        -4.995898         0.538946         0.699257
 H        -3.845094         1.968956         0.773671
 H        -4.301527        -0.030802        -1.568962
 H        -2.851781         2.773358        -1.523315
 H        -3.287970         1.912124        -3.050818
