19
Iteration:  4203charge 0 multiplicity 1
 C         0.763387         0.065246        -1.020670
 C        -0.538227        -0.014564        -0.324926
 C        -1.564828        -0.078269         0.297090
 C        -2.951784         0.225586         0.878997
 O        -2.679946         0.239574         2.260179
 C        -3.533538         1.568721         0.337788
 C        -4.608095         1.340666        -0.799623
 C        -4.122785         0.859021        -2.101019
 O        -4.722116         2.159449        -1.953700
 H         0.603921         0.238473        -2.117497
 H         1.442469         0.883163        -0.529265
 H         1.251866        -0.959514        -0.825190
 H        -3.720333        -0.560402         0.707826
 H        -2.161799        -0.498378         2.469390
 H        -4.178825         2.148535         0.968205
 H        -2.942466         2.465637        -0.059849
 H        -5.566961         1.041330        -0.487234
 H        -2.988340         0.812084        -2.288039
 H        -4.615571         0.044530        -2.679441
