19
Iteration:  4683
 C         0.914964        -0.515014        -0.639966
 C        -0.421292        -0.349281        -0.199783
 C        -1.492907        -0.008535         0.063770
 C        -2.754684         0.271995         0.759841
 O        -2.560331         0.593107         2.157501
 C        -3.646155         1.337379         0.204986
 C        -4.438513         1.019623        -1.106204
 C        -4.187290         1.883466        -2.230281
 O        -5.323262         2.040316        -1.554658
 H         1.401344         0.442615        -0.773962
 H         1.583826        -1.106247         0.121933
 H         1.086210        -1.017953        -1.616645
 H        -3.349485        -0.673991         0.688120
 H        -1.973671        -0.085068         2.496236
 H        -4.461403         1.547590         0.858553
 H        -3.165587         2.318834         0.131653
 H        -5.009024         0.065382        -1.195834
 H        -3.424358         2.684676        -2.059546
 H        -4.235813         1.612767        -3.247441
