19
Iteration:   770
 C         1.498383        -0.212305         0.033282
 C         0.087785         0.078349        -0.109399
 C        -1.083867         0.228475         0.121557
 C        -2.576333         0.045690        -0.043567
 O        -3.304615        -0.351403         1.136798
 C        -3.155223         1.487106        -0.400271
 C        -4.626255         1.533180        -0.394601
 C        -5.437185         1.186665        -1.586203
 O        -5.160906         2.546383        -1.198577
 H         2.263968         0.555970        -0.242830
 H         1.793745        -0.532130         1.090562
 H         1.863528        -1.166435        -0.443291
 H        -2.732790        -0.746243        -0.845490
 H        -2.732551        -0.927051         1.682617
 H        -2.665111         2.271115         0.293251
 H        -2.727079         1.780947        -1.392002
 H        -4.803950         1.374393         0.715113
 H        -4.810587         0.818322        -2.458372
 H        -6.496644         0.888320        -1.603429
