19
Iteration:  2106
 C         1.451835        -0.112874        -0.050584
 C         0.032865        -0.009100        -0.080203
 C        -1.158558         0.117178         0.151075
 C        -2.671515         0.170033         0.166746
 O        -3.043930        -0.044952         1.534056
 C        -3.187735         1.426506        -0.480666
 C        -4.624243         1.545900        -0.508191
 C        -5.420786         0.988457        -1.573784
 O        -5.090865         2.396082        -1.566969
 H         1.777392        -0.372701         1.009038
 H         1.827030        -0.866804        -0.822799
 H         2.100029         0.783430        -0.335799
 H        -2.866692        -0.747468        -0.427529
 H        -3.517981        -0.869638         1.689071
 H        -2.851350         2.298688         0.033972
 H        -2.671565         1.403979        -1.506221
 H        -5.145030         1.604120         0.451504
 H        -5.049077         0.452249        -2.459972
 H        -6.498588         0.786900        -1.336187
