19
Iteration:  1618charge 0 multiplicity 1
 C        -0.017501        -0.040553        -1.618569
 C        -0.797996         0.173121        -0.488003
 C        -1.686679         0.109138         0.402831
 C        -2.943654         0.141002         1.153513
 O        -2.765067         0.147952         2.670812
 C        -3.904562         1.205938         0.524720
 C        -3.799576         0.983513        -1.075143
 C        -3.297077         1.914555        -2.066984
 O        -4.754357         1.773842        -1.927447
 H        -0.131661         0.498176        -2.577388
 H         0.990740         0.269602        -1.220830
 H         0.246476        -1.100071        -1.867789
 H        -3.251411        -0.856958         0.984600
 H        -1.934630         0.646957         2.701120
 H        -4.940709         1.005113         0.895193
 H        -3.464160         2.167738         0.738458
 H        -3.816026        -0.074899        -1.398775
 H        -3.116229         3.018987        -1.885803
 H        -2.892245         1.415985        -2.958003
