19
Iteration:  4225charge 0 multiplicity 1
 C         0.700177        -0.005785        -0.984811
 C        -0.587885         0.052924        -0.417310
 C        -1.700251        -0.038434         0.128320
 C        -2.878737         0.279442         0.845652
 O        -2.678183         0.243453         2.358223
 C        -3.656127         1.619838         0.493042
 C        -4.441593         1.266640        -0.767689
 C        -4.084206         0.838758        -2.179244
 O        -4.671200         2.129851        -1.964872
 H         0.560807         0.345581        -2.054925
 H         1.358947         0.814874        -0.463053
 H         1.222579        -1.024227        -0.891404
 H        -3.643951        -0.515369         0.699498
 H        -1.856251        -0.292536         2.654968
 H        -4.420322         1.956780         1.229828
 H        -2.945938         2.518540         0.269730
 H        -5.342261         0.780399        -0.516168
 H        -2.991013         0.778141        -2.490182
 H        -4.549605         0.101741        -2.874774
