19
Iteration:   619
 C         1.294259        -0.112960        -0.530322
 C         0.047376         0.009703         0.139984
 C        -1.155260         0.032497         0.199169
 C        -2.659340         0.054977         0.335462
 O        -3.020443        -0.330156         1.767272
 C        -3.310065         1.311235        -0.136528
 C        -4.711410         1.386655        -0.692034
 C        -4.988057         1.473890        -2.098237
 O        -5.240460         2.622305        -1.336538
 H         1.308844         0.397088        -1.529956
 H         2.202105         0.309547        -0.017805
 H         1.421011        -1.150515        -0.937329
 H        -3.107019        -0.778121        -0.294223
 H        -2.403000        -1.078562         2.020152
 H        -3.414522         2.079541         0.735135
 H        -2.508913         1.785441        -0.824298
 H        -5.541647         0.864733        -0.002342
 H        -4.121848         1.541445        -2.776913
 H        -5.868780         1.082156        -2.588343
