19
Iteration:   628
 C         1.320846        -0.137589        -0.503417
 C        -0.004725         0.095867         0.116145
 C        -1.243175         0.057768         0.127041
 C        -2.620750        -0.040091         0.344347
 O        -2.992026        -0.272609         1.679048
 C        -3.341874         1.323457        -0.109203
 C        -4.741130         1.383349        -0.642425
 C        -4.969232         1.478601        -2.093614
 O        -5.204896         2.610861        -1.342114
 H         1.284546         0.486333        -1.448916
 H         2.266092        -0.001910         0.143538
 H         1.360481        -1.281000        -0.567375
 H        -2.902794        -0.969720        -0.239158
 H        -2.458391        -1.055020         2.008314
 H        -3.207380         1.878409         0.963678
 H        -2.562617         1.793278        -0.839857
 H        -5.429341         0.879840         0.157244
 H        -4.121107         1.607894        -2.772208
 H        -5.878190         0.918885        -2.387034
