19
Iteration:   482
 C         1.403406         0.015902        -0.387913
 C        -0.027548        -0.184676        -0.173290
 C        -1.189655        -0.049494         0.114305
 C        -2.565267         0.078998         0.415870
 O        -2.963526        -0.399237         1.791339
 C        -3.293268         1.434371        -0.088638
 C        -4.797601         1.434377        -0.642278
 C        -5.147373         1.367074        -2.067865
 O        -5.103591         2.607085        -1.391498
 H         1.574799         0.289534        -1.458850
 H         1.631839         0.914891         0.219437
 H         2.093029        -0.820819        -0.140475
 H        -2.908342        -0.593082        -0.395807
 H        -3.900785        -0.282509         1.769660
 H        -3.384215         2.131882         0.787672
 H        -2.593572         1.871943        -0.812127
 H        -5.566870         1.298541         0.020570
 H        -4.352061         1.444949        -2.841527
 H        -6.097194         0.843907        -2.310413
