19
Iteration:  3043
 C         0.916458        -0.023366        -0.820652
 C        -0.468820         0.164502        -0.453461
 C        -1.540232         0.199854         0.092248
 C        -2.848055         0.030633         0.747509
 O        -2.677859         0.037117         2.202722
 C        -3.810012         1.138046         0.346101
 C        -4.469863         0.990708        -1.022748
 C        -3.839573         1.636633        -2.138265
 O        -5.112599         2.169076        -1.507787
 H         1.410288         0.917008        -0.947363
 H         1.396356        -0.814511        -0.149329
 H         0.899871        -0.432674        -1.849291
 H        -3.355588        -0.951081         0.486706
 H        -3.156180         0.791779         2.511753
 H        -4.626312         1.329721         1.165573
 H        -3.193737         2.065654         0.337810
 H        -4.895938        -0.005561        -1.266924
 H        -3.069769         2.379996        -1.891342
 H        -4.027544         1.363041        -3.245288
