19
Iteration:  3375
 C         1.442079         0.031531         0.117633
 C        -0.002829        -0.090603        -0.023088
 C        -1.217658        -0.102283         0.061503
 C        -2.591478         0.018113         0.039975
 O        -3.088163        -0.105714         1.403888
 C        -3.132905         1.347374        -0.551361
 C        -4.553299         1.697111        -0.429332
 C        -5.448247         1.107875        -1.507676
 O        -5.136904         2.496630        -1.549580
 H         1.851702        -0.041871         1.218249
 H         2.021736        -0.729446        -0.461174
 H         1.790014         1.062587        -0.070029
 H        -2.843439        -0.895876        -0.547939
 H        -3.053514        -1.096693         1.641048
 H        -2.579823         2.044288         0.016776
 H        -2.776450         1.545124        -1.531464
 H        -5.078648         1.978122         0.485375
 H        -5.100972         0.471892        -2.344861
 H        -6.572932         0.897046        -1.312896
