19
Iteration:  2348charge 0 multiplicity 1
 C         1.391771        -0.008155         0.516987
 C        -0.041420         0.076517         0.246654
 C        -1.122758        -0.056207        -0.188422
 C        -2.544412         0.038064        -0.383143
 O        -3.163482        -0.215338         0.906836
 C        -3.010788         1.451756        -0.931450
 C        -4.365116         1.822017        -0.470268
 C        -5.565450         1.023254        -0.786983
 O        -5.306350         2.313524        -1.373431
 H         1.749156        -1.087108         0.789143
 H         2.001249         0.280411        -0.390500
 H         1.751392         0.448737         1.477996
 H        -3.000219        -0.741788        -1.056663
 H        -2.449341        -0.163518         1.610529
 H        -2.295482         2.072565        -0.499600
 H        -2.870089         1.382783        -1.998034
 H        -4.365571         2.351578         0.510757
 H        -5.404563         0.255462        -1.524590
 H        -6.506946         1.053532        -0.255936
