19
Iteration:  3412charge 0 multiplicity 1
 C         1.419593        -0.050806         0.421650
 C         0.015877        -0.005881        -0.067073
 C        -1.161037        -0.067801        -0.298242
 C        -2.540692         0.035740        -0.046390
 O        -3.094224        -0.041145         1.337360
 C        -3.011905         1.444586        -0.598576
 C        -4.519073         1.677240        -0.446773
 C        -5.557513         1.030874        -1.296495
 O        -5.168945         2.364765        -1.512719
 H         1.364767        -0.541986         1.361929
 H         1.924172        -0.677623        -0.287799
 H         1.957229         0.897617         0.264183
 H        -3.152742        -0.740995        -0.574925
 H        -3.993493        -0.423914         1.076054
 H        -2.538829         2.215182         0.039523
 H        -2.706394         1.547630        -1.658253
 H        -4.692382         2.034447         0.619782
 H        -5.262740         0.273794        -2.074769
 H        -6.419601         1.065846        -0.730379
