19
Iteration:  4443
 C         0.298052        -0.309667        -1.325217
 C        -0.794029        -0.230121        -0.366325
 C        -1.689394         0.132755         0.345141
 C        -2.947525         0.230002         1.172730
 O        -2.578057         0.572236         2.486222
 C        -3.831362         1.402669         0.378038
 C        -3.900616         0.998515        -1.062999
 C        -3.565663         1.976356        -2.197527
 O        -4.976663         1.516256        -1.852684
 H         0.295628         0.511419        -1.995615
 H         1.302264        -0.366413        -0.815796
 H         0.262180        -1.176222        -1.963695
 H        -3.600535        -0.687500         1.211145
 H        -1.772692         1.016082         2.584622
 H        -4.804604         1.502491         0.845507
 H        -3.336595         2.444020         0.566535
 H        -3.664869        -0.043939        -1.381590
 H        -3.419641         3.054648        -2.041743
 H        -3.207447         1.500460        -3.183596
