19
Iteration:  2935
 C         0.149327         0.453543        -1.458838
 C        -0.970913         0.147771        -0.630461
 C        -1.696295        -0.099904         0.378294
 C        -2.972913        -0.109385         1.066903
 O        -2.743256         0.196619         2.423174
 C        -3.858187         0.989962         0.454486
 C        -3.896115         0.927742        -1.020781
 C        -3.246660         1.766200        -1.972103
 O        -4.650912         1.967804        -1.726012
 H         0.054028         1.432383        -1.918963
 H         1.084292         0.734477        -0.931452
 H         0.331605        -0.183174        -2.305868
 H        -3.546010        -1.040593         1.035545
 H        -3.578931         0.555284         2.686338
 H        -4.979283         0.818869         0.802963
 H        -3.476747         1.992621         0.718066
 H        -4.316135        -0.010565        -1.375473
 H        -2.502934         2.402626        -1.420234
 H        -2.835218         1.332346        -2.969583
