19
Iteration:  3665
 C         1.447790        -0.134614         0.141984
 C        -0.070226         0.014774         0.160924
 C        -1.241620        -0.071449        -0.114394
 C        -2.689824         0.050057         0.061814
 O        -3.102070        -0.107463         1.450761
 C        -2.999250         1.548393        -0.608364
 C        -4.494172         1.926501        -0.560228
 C        -5.433480         0.991711        -1.173864
 O        -5.164704         2.278641        -1.783559
 H         1.677826        -1.184922         0.203077
 H         1.836239         0.303645        -0.841185
 H         1.874483         0.427345         1.013671
 H        -3.198352        -0.624797        -0.633548
 H        -2.529704        -0.780175         1.819579
 H        -2.493435         2.294160        -0.138173
 H        -2.676186         1.279012        -1.623615
 H        -5.002032         2.229844         0.372026
 H        -5.002470         0.163289        -1.765612
 H        -6.447338         0.847270        -0.728910
