19
Iteration:  2270charge 0 multiplicity 1
 C         1.446585        -0.292357         0.771672
 C         0.080564        -0.130098         0.253638
 C        -0.945396         0.255578        -0.258561
 C        -2.411637         0.167061        -0.482379
 O        -3.003330         0.000526         0.759792
 C        -3.062607         1.492245        -1.030936
 C        -4.532724         1.811962        -0.462252
 C        -5.702724         0.980245        -0.649228
 O        -5.537906         2.242011        -1.355633
 H         1.437557        -1.247581         1.410405
 H         2.094907        -0.295661        -0.163040
 H         1.960417         0.452304         1.455279
 H        -2.578659        -0.748691        -1.042917
 H        -2.798436        -0.892874         1.114906
 H        -2.272566         2.100534        -0.742325
 H        -3.069040         1.548625        -2.137810
 H        -4.584147         2.473160         0.385843
 H        -5.565283         0.111895        -1.294792
 H        -6.433618         0.805659         0.077765
