19
Iteration:  3964charge 0 multiplicity 1
 C         1.313159        -0.460733        -0.262958
 C        -0.142722        -0.083681        -0.141305
 C        -1.310019         0.081158         0.073465
 C        -2.676836         0.262077         0.458690
 O        -2.668160         0.402826         1.914098
 C        -3.506073         1.550296        -0.030837
 C        -4.776047         1.097504        -0.810458
 C        -4.714333         1.302968        -2.270215
 O        -5.406555         2.211331        -1.450180
 H         1.521191        -1.159347        -1.066081
 H         1.981428         0.412408        -0.478571
 H         1.733418        -0.906308         0.578194
 H        -3.268334        -0.604461         0.114360
 H        -1.820771         0.046059         2.100648
 H        -3.870009         2.009638         0.890080
 H        -2.825981         2.284259        -0.627336
 H        -5.370291         0.284634        -0.304434
 H        -3.781464         1.772995        -2.650545
 H        -5.351620         0.644294        -2.902528
