19
Iteration:   641
 C         1.310066        -0.198095        -0.384215
 C        -0.015092         0.187061         0.000605
 C        -1.250196         0.103445         0.076183
 C        -2.693412        -0.105649         0.229473
 O        -2.981864        -0.217187         1.645678
 C        -3.300346         1.337462        -0.040584
 C        -4.728037         1.379561        -0.601206
 C        -4.972506         1.372183        -2.083842
 O        -5.142256         2.604100        -1.250202
 H         1.699040         0.264543        -1.342110
 H         2.056615         0.165651         0.376574
 H         1.369247        -1.266610        -0.729176
 H        -3.169081        -0.918512        -0.420367
 H        -2.550796        -0.964406         2.036494
 H        -3.192146         1.982133         0.947902
 H        -2.739961         1.943335        -0.862582
 H        -5.713878         0.965999        -0.089594
 H        -4.111031         1.358015        -2.772378
 H        -5.862676         0.971979        -2.549827
