19
Iteration:  3826
 C         1.286612        -0.204086        -0.453642
 C        -0.080411        -0.228775        -0.113536
 C        -1.106864         0.034318         0.434900
 C        -2.582560         0.155353         0.556560
 O        -3.125138         0.337433         1.833745
 C        -3.253292         1.325551        -0.329799
 C        -4.661157         1.188346        -0.800823
 C        -5.001437         1.246795        -2.242465
 O        -5.232073         2.378105        -1.348064
 H         1.648350        -1.061858        -1.124145
 H         1.509485         0.694268        -1.038479
 H         2.020238        -0.199836         0.420330
 H        -2.822463        -0.829533         0.171114
 H        -2.447827         0.485873         2.585128
 H        -3.321122         2.281867         0.343448
 H        -2.483262         1.742898        -0.977090
 H        -5.393941         0.694900        -0.096376
 H        -4.245679         1.281300        -3.013281
 H        -5.962442         0.850583        -2.377147
