19
Iteration:  1686charge 0 multiplicity 1
 C         0.273379         0.081087        -1.504464
 C        -0.661337        -0.127295        -0.464804
 C        -1.599245        -0.006289         0.297341
 C        -2.953993         0.110791         1.087747
 O        -2.810183         0.380751         2.527922
 C        -3.773275         1.227122         0.445934
 C        -3.900901         0.910166        -1.046355
 C        -3.533988         1.869256        -2.085534
 O        -4.875621         1.882370        -1.738410
 H         0.171326         1.041122        -1.942541
 H         1.234199        -0.000963        -1.007462
 H         0.362184        -0.667333        -2.280069
 H        -3.614262        -0.681837         0.983484
 H        -2.937561        -0.501671         3.002331
 H        -4.866000         1.178094         0.802558
 H        -3.289484         2.173337         0.517994
 H        -4.077129        -0.161654        -1.284634
 H        -2.937603         2.760055        -1.823934
 H        -3.261756         1.460623        -3.068024
