19
Iteration:  2350
 C         1.386199        -0.006368         0.497332
 C        -0.033927         0.082940         0.266731
 C        -1.127472        -0.085849        -0.200523
 C        -2.537180         0.055345        -0.372134
 O        -3.171306        -0.226925         0.919546
 C        -3.012189         1.442223        -0.942472
 C        -4.381068         1.824530        -0.476021
 C        -5.560606         1.028252        -0.784040
 O        -5.290013         2.316740        -1.375333
 H         1.779361        -1.048219         0.747868
 H         2.014643         0.286537        -0.354256
 H         1.708263         0.484212         1.458076
 H        -2.924468        -0.701657        -1.014504
 H        -2.453034        -0.151082         1.563011
 H        -2.326279         2.126737        -0.486698
 H        -2.894936         1.419316        -1.990142
 H        -4.441391         2.320177         0.525410
 H        -5.340146         0.274516        -1.536378
 H        -6.551383         1.048544        -0.248049
