19
Iteration:  1216charge 0 multiplicity 1
 C         1.295162        -0.132877        -0.380847
 C        -0.180534        -0.253128        -0.360643
 C        -1.341087         0.076818        -0.069123
 C        -2.718527         0.073788         0.433922
 O        -2.843082        -0.032710         1.915798
 C        -3.496472         1.456775         0.199774
 C        -4.705927         1.324276        -0.673858
 C        -4.821049         1.242009        -2.136690
 O        -5.028469         2.546490        -1.499534
 H         1.733917        -1.111498        -0.084910
 H         1.717779         0.279853        -1.327290
 H         1.586426         0.531824         0.475069
 H        -3.459982        -0.591014        -0.060328
 H        -1.965474        -0.409817         2.196069
 H        -3.637893         1.852053         1.231012
 H        -3.020955         2.297884        -0.307396
 H        -5.691709         1.055742        -0.244494
 H        -4.066992         1.313664        -2.837385
 H        -5.618734         0.705131        -2.584270
