19
Iteration:  3836
 C         1.371233        -0.221559        -0.477756
 C        -0.061140        -0.247082        -0.124498
 C        -1.175372         0.060866         0.366305
 C        -2.588454         0.184834         0.579465
 O        -3.111334         0.323153         1.900444
 C        -3.210218         1.365406        -0.321311
 C        -4.695117         1.152475        -0.803192
 C        -4.959468         1.242453        -2.227569
 O        -5.283407         2.395791        -1.349807
 H         1.604449        -1.154988        -1.138003
 H         1.543854         0.769590        -0.991800
 H         1.817426        -0.251823         0.567243
 H        -3.174508        -0.660610         0.211735
 H        -2.489274         0.534343         2.684585
 H        -3.199592         2.236659         0.401237
 H        -2.693611         1.430036        -1.266751
 H        -5.421126         0.509482        -0.196853
 H        -4.113838         1.454504        -2.867958
 H        -5.736826         0.782196        -2.828998
