19
Iteration:  3750
 C         1.346277        -0.102821        -0.297622
 C        -0.049462        -0.028676        -0.019364
 C        -1.200569        -0.018353         0.352246
 C        -2.644147         0.027371         0.275805
 O        -3.169941         0.205721         1.669060
 C        -3.115101         1.223252        -0.426717
 C        -4.625516         1.539346        -0.587729
 C        -5.257433         1.048612        -1.775217
 O        -5.054046         2.463503        -1.592314
 H         1.708180        -1.088776        -0.580562
 H         1.680424         0.517268        -1.049657
 H         2.018220         0.162502         0.527127
 H        -3.046624        -0.903042        -0.170168
 H        -3.008334        -0.552441         2.243571
 H        -2.610381         2.117459         0.169385
 H        -2.600171         1.391660        -1.388461
 H        -5.198632         1.627847         0.371611
 H        -4.554803         0.760666        -2.554311
 H        -6.251486         0.602114        -1.786853
