19
Iteration:   647charge 0 multiplicity 1
 C         1.324546        -0.199588        -0.334651
 C        -0.033618         0.197762        -0.097326
 C        -1.232593         0.090292         0.049258
 C        -2.721839        -0.003483         0.158569
 O        -3.000153        -0.219166         1.658999
 C        -3.319184         1.336551        -0.050101
 C        -4.760984         1.373737        -0.620153
 C        -4.959883         1.338222        -2.028257
 O        -5.094154         2.565821        -1.229171
 H         1.766654         0.301994        -1.193140
 H         1.989089         0.034165         0.503492
 H         1.402180        -1.277121        -0.518571
 H        -3.272225        -0.750586        -0.384754
 H        -2.533478        -1.001927         2.009527
 H        -3.310097         1.934938         0.833087
 H        -2.625351         1.790231        -0.712216
 H        -5.436397         0.907807         0.028253
 H        -4.056206         1.371894        -2.631420
 H        -5.968215         1.144300        -2.465695
