19
Iteration:   877
 C         1.455918         0.035523         0.478235
 C         0.048345        -0.077077        -0.098235
 C        -1.132562        -0.201382        -0.270825
 C        -2.573117        -0.058153        -0.240482
 O        -3.120763        -0.124936         1.081553
 C        -3.043596         1.310284        -0.795207
 C        -4.501619         1.592710        -0.330659
 C        -5.586847         1.224307        -1.284956
 O        -5.245203         2.635050        -1.152010
 H         1.472939         0.946904         1.038590
 H         1.462577        -0.739853         1.246109
 H         2.286417         0.041577        -0.200758
 H        -3.088331        -0.899741        -0.672818
 H        -2.448434        -0.415168         1.674263
 H        -2.437892         2.072469        -0.316425
 H        -2.722637         1.217974        -1.794332
 H        -4.637015         1.647659         0.859135
 H        -5.589100         0.709420        -2.346067
 H        -6.440282         0.941412        -0.612365
