19
Iteration:  4115charge 0 multiplicity 1
 C         0.959469        -0.120316        -0.898820
 C        -0.340102         0.007188        -0.210632
 C        -1.421681         0.162823         0.309665
 C        -2.809938         0.121472         0.847301
 O        -2.835856         0.251082         2.337292
 C        -3.374716         1.440351         0.090487
 C        -4.642969         1.296841        -0.840979
 C        -4.459634         0.952218        -2.239989
 O        -4.991611         2.289192        -1.837127
 H         0.897073        -0.301484        -1.973033
 H         1.625616         0.814682        -0.719002
 H         1.607062        -1.027281        -0.556829
 H        -3.519278        -0.538521         0.349093
 H        -2.305359        -0.427031         2.679753
 H        -3.398228         2.045969         1.001528
 H        -2.526353         2.025501        -0.374964
 H        -5.427796         0.803090        -0.369888
 H        -3.411296         0.897349        -2.727170
 H        -5.221340         0.342129        -2.715452
