19
Iteration:   319charge 0 multiplicity 1
 C         1.450571        -0.236862         0.055105
 C         0.051714         0.018630         0.160191
 C        -1.135580         0.135577         0.068881
 C        -2.578415         0.137486        -0.159789
 O        -3.254653        -0.393532         0.970612
 C        -3.020497         1.604485        -0.553462
 C        -4.542469         1.641222        -0.341024
 C        -5.446097         1.066718        -1.355652
 O        -5.243553         2.515666        -1.222155
 H         1.629512        -0.932650        -0.783255
 H         2.006897         0.678689        -0.143025
 H         1.859542        -0.693306         0.967579
 H        -2.688280        -0.580210        -1.010901
 H        -2.475683        -0.676746         1.540285
 H        -2.730158         2.239748         0.302044
 H        -2.590846         2.079879        -1.401003
 H        -4.831412         1.649238         0.654742
 H        -5.154433         0.749552        -2.329079
 H        -6.410832         0.719850        -1.009243
