19
Iteration:   182charge 0 multiplicity 1
 C         1.313131        -0.093872         0.513685
 C         0.004201         0.055248        -0.048080
 C        -1.176232        -0.007394        -0.382158
 C        -2.679237         0.008167        -0.367357
 O        -3.201302        -0.575505         0.814849
 C        -2.956314         1.614152        -0.598194
 C        -4.354918         1.865119        -0.312396
 C        -5.331810         1.080805        -1.041224
 O        -5.283478         2.529300        -1.145655
 H         1.622201        -1.159516         0.572264
 H         2.070177         0.483101        -0.082414
 H         1.320916         0.313349         1.540036
 H        -3.339027        -0.469205        -1.137295
 H        -2.936193        -0.159914         1.659349
 H        -2.172599         2.096158         0.046820
 H        -2.647236         1.835588        -1.706436
 H        -4.700781         1.954389         0.815523
 H        -5.110678         0.454033        -1.955755
 H        -6.177373         0.711560        -0.395323
