19
Iteration:  2573charge 0 multiplicity 1
 C         1.251217        -0.110702        -0.471842
 C        -0.109588         0.127302        -0.002534
 C        -1.286423         0.034536         0.035085
 C        -2.739584         0.155158         0.448283
 O        -2.946204        -0.341793         1.774358
 C        -3.351762         1.503173         0.002708
 C        -4.584570         1.166092        -0.809238
 C        -4.661778         1.519978        -2.177795
 O        -5.343531         2.371264        -1.240371
 H         1.077536        -0.720863        -1.372590
 H         1.884482         0.780396        -0.707132
 H         1.934751        -0.731574         0.159635
 H        -3.366102        -0.524335        -0.140801
 H        -2.611033         0.316372         2.371731
 H        -3.501031         2.146345         0.836176
 H        -2.682881         2.061771        -0.611465
 H        -5.215978         0.330221        -0.574998
 H        -3.740346         1.829740        -2.701599
 H        -5.355586         0.879861        -2.816095
