19
Iteration:  1984
 C         1.072121         0.233949        -0.785722
 C        -0.217450         0.007115        -0.277772
 C        -1.270051        -0.247219         0.408665
 C        -2.762529        -0.005437         0.739352
 O        -3.179131         0.122699         2.018974
 C        -3.202260         1.319377        -0.092483
 C        -4.496798         1.186570        -0.762028
 C        -4.665069         1.177599        -2.191532
 O        -5.063804         2.440783        -1.495001
 H         1.768888         0.440557         0.048772
 H         1.544031        -0.731103        -1.085395
 H         1.259163         0.844704        -1.669994
 H        -3.508827        -0.852835         0.560217
 H        -2.383538         0.407431         2.558010
 H        -3.190653         2.134465         0.608357
 H        -2.497175         1.597181        -0.911861
 H        -5.254262         0.565479        -0.228568
 H        -3.799121         1.424149        -2.825484
 H        -5.547987         0.683636        -2.616848
