19
Iteration:  1364
 C         0.822181        -0.157945        -1.077265
 C        -0.377760         0.099618        -0.231410
 C        -1.512897        -0.093933         0.293545
 C        -2.848307         0.096453         0.815658
 O        -2.818080         0.059617         2.302115
 C        -3.583728         1.410474         0.204512
 C        -4.379300         1.010227        -0.969985
 C        -4.037512         1.757674        -2.277590
 O        -5.183429         2.197399        -1.574267
 H         0.491564        -0.913847        -1.698695
 H         1.129949         0.727560        -1.555092
 H         1.697338        -0.412765        -0.548370
 H        -3.367839        -0.843802         0.631934
 H        -1.938659         0.247804         2.610238
 H        -4.192491         1.467798         1.097864
 H        -2.748862         2.158323         0.165461
 H        -4.720379        -0.013906        -0.820592
 H        -3.148937         2.466155        -2.120163
 H        -4.171474         1.125433        -3.212948
