19
Iteration:  4957charge 0 multiplicity 1
 C         0.657075        -0.051433        -1.040688
 C        -0.688376         0.095014        -0.465571
 C        -1.825727         0.135113        -0.047626
 C        -3.030909         0.145929         0.807330
 O        -2.749943         0.155896         2.272069
 C        -3.781256         1.420570         0.582416
 C        -4.490107         1.427773        -0.755374
 C        -4.134289         0.790333        -2.015700
 O        -4.008007         2.212112        -1.880729
 H         1.383733         0.674728        -0.541484
 H         1.028745        -1.114972        -0.885789
 H         0.817474         0.219293        -2.086083
 H        -3.895571        -0.538882         0.768566
 H        -2.040981         0.666141         2.586479
 H        -4.625528         1.706650         1.308749
 H        -3.037921         2.367590         0.603213
 H        -5.582649         1.417665        -0.699822
 H        -3.257287         0.268132        -2.236680
 H        -5.099543         0.478437        -2.588101
