19
Iteration:  3418charge 0 multiplicity 1
 C         1.372308        -0.060380         0.437207
 C         0.045306        -0.031410        -0.009248
 C        -1.122270        -0.018649        -0.309088
 C        -2.554187         0.018645        -0.112200
 O        -3.064673        -0.033112         1.277459
 C        -3.023419         1.434617        -0.599296
 C        -4.480877         1.675833        -0.435615
 C        -5.547067         1.015737        -1.235470
 O        -5.202493         2.390290        -1.534603
 H         1.388103        -0.614515         1.466524
 H         1.738114        -0.738384        -0.402653
 H         1.902497         0.903900         0.374947
 H        -3.180262        -0.779253        -0.508833
 H        -4.046328        -0.209288         1.221987
 H        -2.479978         2.227217        -0.036708
 H        -2.690650         1.561049        -1.631552
 H        -4.921116         1.989678         0.492261
 H        -5.209088         0.229991        -1.898908
 H        -6.488638         0.899175        -0.556052
