19
Iteration:  3382
 C         1.458598         0.045284         0.209980
 C         0.002231        -0.071697        -0.101445
 C        -1.196931        -0.125494         0.059133
 C        -2.644261        -0.015634         0.029915
 O        -3.060359        -0.083231         1.383530
 C        -3.105151         1.407501        -0.547701
 C        -4.609928         1.676504        -0.461455
 C        -5.453488         1.091355        -1.463966
 O        -5.116332         2.484798        -1.542800
 H         1.730364        -0.226117         1.214676
 H         2.007586        -0.749989        -0.408179
 H         1.958914         0.995027        -0.028557
 H        -3.052349        -0.765395        -0.699060
 H        -3.283684        -1.028421         1.423132
 H        -2.518220         2.265282         0.018502
 H        -2.854420         1.439873        -1.656703
 H        -4.879961         1.892636         0.561052
 H        -5.214038         0.342529        -2.223321
 H        -6.473045         0.916175        -1.093177
