19
Iteration:  3049charge 0 multiplicity 1
 C         0.945232        -0.059238        -0.814255
 C        -0.441565         0.149671        -0.459263
 C        -1.521388         0.225527         0.092194
 C        -2.855380         0.036625         0.729831
 O        -2.677077         0.051194         2.155463
 C        -3.819222         1.167471         0.312699
 C        -4.479657         1.001427        -0.989171
 C        -3.883234         1.639501        -2.124908
 O        -5.123140         2.157813        -1.489301
 H         1.540057         0.905015        -0.712650
 H         1.289090        -0.681772        -0.013779
 H         0.915966        -0.471083        -1.846903
 H        -3.294827        -0.906183         0.419504
 H        -3.370129         0.653995         2.496093
 H        -4.501852         1.196500         1.110961
 H        -3.220275         2.080032         0.331093
 H        -4.874829         0.001249        -1.182350
 H        -2.995598         2.194642        -1.848069
 H        -4.009440         1.340636        -3.101909
