19
Iteration:  2569
 C         1.244816        -0.109781        -0.450011
 C        -0.079635         0.119179        -0.008368
 C        -1.290566         0.008641         0.023254
 C        -2.712002         0.204424         0.413043
 O        -2.967579        -0.357581         1.774713
 C        -3.361271         1.505692        -0.024664
 C        -4.606614         1.174571        -0.794369
 C        -4.686648         1.491552        -2.167761
 O        -5.313532         2.379375        -1.232080
 H         1.113670        -0.616283        -1.440821
 H         1.835056         0.757141        -0.721444
 H         2.005629        -0.597715         0.191007
 H        -3.386096        -0.629948        -0.011435
 H        -2.701268         0.348233         2.439828
 H        -3.547529         2.152667         0.855782
 H        -2.643401         1.998089        -0.678380
 H        -5.239848         0.324318        -0.486466
 H        -3.722986         1.819100        -2.604616
 H        -5.313923         0.949203        -2.838146
