19
Iteration:  3600
 C         1.524718        -0.259309         0.447270
 C         0.131063        -0.206720         0.133405
 C        -1.046567         0.006315        -0.178582
 C        -2.519760         0.231328        -0.197204
 O        -3.282931        -0.084903         1.040452
 C        -3.010537         1.608428        -0.662298
 C        -4.523181         1.921957        -0.494722
 C        -5.622849         0.946243        -0.850909
 O        -5.300441         2.181003        -1.690994
 H         1.907821        -1.166811         0.891668
 H         2.366145        -0.039529        -0.362965
 H         1.789226         0.566730         1.178924
 H        -2.979389        -0.507251        -0.853906
 H        -3.175176         0.714932         1.566914
 H        -2.400832         2.466404        -0.265829
 H        -2.833707         1.499039        -1.773284
 H        -4.645882         2.485510         0.461219
 H        -5.324703         0.025305        -1.338761
 H        -6.568327         1.021155        -0.227818
