19
Iteration:  4660charge 0 multiplicity 1
 C         0.971183        -0.564761        -0.674107
 C        -0.377890        -0.300071        -0.318018
 C        -1.594570        -0.045905         0.079827
 C        -2.875542         0.231327         0.838958
 O        -2.504317         0.575406         2.171449
 C        -3.774726         1.423077         0.327892
 C        -4.361755         1.160797        -1.103768
 C        -4.032787         1.922929        -2.220111
 O        -5.439248         1.902558        -1.633631
 H         1.579370         0.290402        -0.902768
 H         1.600749        -1.156772         0.152854
 H         1.223697        -1.147075        -1.613011
 H        -3.563409        -0.648427         0.730766
 H        -1.647991         0.062721         2.512950
 H        -4.555573         1.906750         0.985764
 H        -3.093942         2.255568         0.226139
 H        -4.359144         0.042756        -1.340833
 H        -3.563788         2.920586        -2.126266
 H        -3.975140         1.492388        -3.123520
