19
Iteration:  1441charge 0 multiplicity 1
 C         0.702558        -0.013181        -0.978804
 C        -0.649298        -0.160240        -0.634948
 C        -1.735471        -0.021242        -0.071609
 C        -2.963532         0.076744         0.883956
 O        -2.528131         0.399616         2.229782
 C        -4.005149         1.073156         0.442063
 C        -4.381580         0.927790        -0.959581
 C        -3.541831         1.790624        -1.835264
 O        -4.932135         2.107082        -1.663977
 H         0.809523        -0.412516        -1.984956
 H         1.045306         1.015276        -1.022421
 H         1.266304        -0.682514        -0.347577
 H        -3.460016        -0.835018         1.040762
 H        -2.048309         1.212799         2.033961
 H        -4.761822         0.990155         1.231527
 H        -3.658476         2.147142         0.580894
 H        -4.988324         0.047447        -1.144685
 H        -2.704788         2.409862        -1.398613
 H        -3.231899         1.502168        -2.919864
