19
Iteration:  4206charge 0 multiplicity 1
 C         0.769759         0.066888        -1.020792
 C        -0.533160        -0.003862        -0.343842
 C        -1.596523        -0.098686         0.309146
 C        -2.951134         0.255449         0.893181
 O        -2.677516         0.236512         2.266780
 C        -3.533661         1.573788         0.347494
 C        -4.606709         1.326745        -0.828246
 C        -4.099947         0.869206        -2.105474
 O        -4.715011         2.149007        -1.960478
 H         0.647423         0.208927        -2.148119
 H         1.410311         0.798667        -0.537003
 H         1.173742        -0.889648        -0.838200
 H        -3.700441        -0.538559         0.715087
 H        -2.076708        -0.568445         2.384317
 H        -4.171513         2.111497         1.091504
 H        -3.005333         2.537904         0.055597
 H        -5.569703         1.001932        -0.458056
 H        -3.071643         0.860154        -2.332597
 H        -4.717093         0.031866        -2.578130
