19
Iteration:    83
 C         1.567551        -0.042574         0.231316
 C         0.098962        -0.171614         0.124954
 C        -1.102222        -0.020821         0.043661
 C        -2.452989        -0.010185        -0.258686
 O        -3.088667        -0.752605         0.805229
 C        -3.057795         1.525087        -0.512769
 C        -4.598885         1.711472        -0.361524
 C        -5.720652         1.356184        -1.253399
 O        -5.283013         2.781713        -1.167353
 H         2.097953        -0.919494         0.665861
 H         1.925369         0.193693        -0.795427
 H         1.855318         0.796611         0.893113
 H        -2.727824        -0.558991        -1.212800
 H        -3.587615        -0.230661         1.434661
 H        -2.368975         2.304452        -0.112616
 H        -2.743213         1.572701        -1.606361
 H        -5.021536         1.728037         0.711447
 H        -5.492638         0.760215        -2.176462
 H        -6.791609         1.298976        -0.917935
