19
Iteration:  4405charge 0 multiplicity 1
 C         0.399914        -0.247412        -1.324865
 C        -0.745897        -0.209947        -0.404245
 C        -1.707182         0.024490         0.312521
 C        -2.920239         0.285260         1.140104
 O        -2.526643         0.540487         2.538778
 C        -3.911753         1.404731         0.375496
 C        -4.074083         0.971607        -1.079517
 C        -3.522132         1.745686        -2.163224
 O        -4.935547         1.725037        -1.834895
 H         0.238121         0.593211        -2.092456
 H         1.282652        -0.133301        -0.727134
 H         0.279338        -1.253500        -1.783479
 H        -3.460870        -0.669231         1.144248
 H        -2.300417         1.446228         2.329724
 H        -4.958659         1.422859         0.763286
 H        -3.463410         2.351884         0.265549
 H        -4.090727        -0.134568        -1.124491
 H        -3.032097         2.722452        -1.953473
 H        -3.303269         1.293076        -3.069131
