19
Iteration:  2847
 C         0.070540         0.286665        -1.699316
 C        -0.782269         0.224877        -0.568699
 C        -1.580523         0.265945         0.399915
 C        -2.868390        -0.038210         1.003477
 O        -3.040924         0.216170         2.424574
 C        -3.931686         0.828027         0.438120
 C        -3.973361         0.844950        -1.046724
 C        -3.159142         1.853399        -1.730614
 O        -4.622625         1.950937        -1.680493
 H        -0.439786         0.780523        -2.544982
 H         1.062668         0.807644        -1.465881
 H         0.403909        -0.738053        -1.859549
 H        -3.052296        -1.073218         0.674710
 H        -2.543801        -0.433730         2.914494
 H        -4.914546         0.499655         0.899354
 H        -3.835263         1.886961         0.633041
 H        -4.136150        -0.075189        -1.581244
 H        -2.530364         2.645796        -1.190308
 H        -2.684400         1.430513        -2.648768
