19
Iteration:  4237charge 0 multiplicity 1
 C         0.695336        -0.008208        -0.997058
 C        -0.606635         0.006833        -0.433048
 C        -1.771569         0.160774         0.016421
 C        -2.962606         0.213273         0.971086
 O        -2.699594         0.297876         2.327730
 C        -3.626967         1.545840         0.469382
 C        -4.451885         1.200957        -0.823502
 C        -3.983770         0.853257        -2.171366
 O        -4.620085         2.104985        -1.878139
 H         0.749155         0.238018        -2.132121
 H         1.432254         0.694382        -0.437241
 H         1.114774        -1.055103        -0.964306
 H        -3.611067        -0.663528         0.725938
 H        -1.808211        -0.023853         2.451721
 H        -4.382441         1.853512         1.213693
 H        -2.830448         2.405882         0.336877
 H        -5.383719         0.864056        -0.496213
 H        -2.923954         1.008243        -2.357228
 H        -4.726128         0.157618        -2.645006
