19
Iteration:  3169
 C         1.287166        -0.123975        -0.370311
 C        -0.223896         0.001354        -0.383789
 C        -1.395890         0.075285         0.039691
 C        -2.748572         0.095014         0.471244
 O        -2.799825         0.005783         1.941870
 C        -3.465848         1.345125         0.072638
 C        -4.586368         1.133029        -0.860990
 C        -4.502217         1.533982        -2.263643
 O        -5.293969         2.279833        -1.256766
 H         1.603452         0.677546         0.312485
 H         1.550163        -1.049507         0.041038
 H         1.585262         0.075561        -1.378030
 H        -3.318423        -0.752932         0.000365
 H        -3.712760         0.085750         2.268086
 H        -3.993092         1.816315         1.027395
 H        -2.791468         2.162949        -0.335684
 H        -5.125885         0.273713        -0.485009
 H        -3.611731         2.054580        -2.597897
 H        -5.047147         0.958578        -2.997547
