19
Iteration:  4306charge 0 multiplicity 1
 C         0.667224        -0.147044        -1.218919
 C        -0.602301        -0.095422        -0.316317
 C        -1.718312         0.181000         0.139116
 C        -2.873750         0.134447         1.031031
 O        -2.615073         0.581405         2.313874
 C        -4.020428         1.189597         0.545663
 C        -4.517966         1.102907        -0.897666
 C        -3.714093         1.147018        -2.201250
 O        -4.620066         2.200974        -1.887585
 H         0.456638         0.325757        -2.237966
 H         1.522691         0.230271        -0.710748
 H         0.777959        -1.207615        -1.388764
 H        -3.214674        -0.904328         1.232029
 H        -1.697403         0.883145         2.561491
 H        -4.975890         1.120696         1.146812
 H        -3.631758         2.180598         0.788028
 H        -5.401738         0.412436        -0.839936
 H        -2.661155         1.435353        -2.137553
 H        -4.034047         0.462749        -2.940133
