19
Iteration:  3026
 C         0.843569         0.058444        -0.998349
 C        -0.492028         0.171978        -0.367968
 C        -1.640617         0.073228         0.107216
 C        -2.883612         0.004848         0.900396
 O        -2.681612         0.008831         2.319163
 C        -3.874136         1.130955         0.363807
 C        -4.364493         0.985565        -1.050124
 C        -3.837210         1.767437        -2.226395
 O        -5.014617         2.137662        -1.605883
 H         1.320937         1.082054        -1.037712
 H         1.419677        -0.439679        -0.227164
 H         0.691382        -0.409778        -1.985685
 H        -3.331171        -0.964507         0.707453
 H        -2.204933         0.826444         2.530533
 H        -4.651564         1.057360         1.127695
 H        -3.341340         2.079039         0.455760
 H        -4.951627         0.068412        -1.218573
 H        -2.907552         2.345126        -2.051146
 H        -3.912745         1.285875        -3.176128
