19
Iteration:  3250
 C         1.273970         0.047430        -0.485455
 C        -0.073190        -0.034114         0.029706
 C        -1.211484        -0.051614         0.418784
 C        -2.672967         0.000312         0.363866
 O        -3.150159        -0.102364         1.726247
 C        -3.203737         1.362094        -0.264306
 C        -4.628752         1.207939        -0.734164
 C        -4.931967         1.319368        -2.197009
 O        -5.156551         2.557692        -1.239586
 H         2.047470         0.476316         0.156178
 H         1.648054        -1.050586        -0.685689
 H         1.265353         0.447176        -1.573431
 H        -3.085272        -0.820542        -0.272682
 H        -2.420919         0.097849         2.380161
 H        -3.398144         1.922879         0.694756
 H        -2.476604         1.908830        -0.913647
 H        -5.384986         0.504896        -0.287120
 H        -4.038349         1.480266        -2.883981
 H        -5.872790         1.124881        -2.692584
