19
Iteration:   854
 C         1.502011         0.014818         0.321577
 C         0.062233        -0.203936         0.239100
 C        -1.127621        -0.103747        -0.136209
 C        -2.542318         0.048039        -0.310976
 O        -3.093316        -0.206612         1.107420
 C        -3.034538         1.399424        -0.837779
 C        -4.509522         1.619922        -0.373627
 C        -5.756007         1.234835        -1.324850
 O        -5.211006         2.580369        -1.134374
 H         1.675607         1.041591         0.539471
 H         1.945807        -0.605257         1.081715
 H         1.858315        -0.119845        -0.680856
 H        -3.076744        -0.774332        -0.748399
 H        -2.404273        -0.839098         1.432914
 H        -2.412152         2.173629        -0.441695
 H        -2.946358         1.405551        -1.911366
 H        -4.697055         1.495445         0.791145
 H        -5.415388         0.801069        -2.329680
 H        -6.786674         0.925966        -0.970823
