19
Iteration:   684charge 0 multiplicity 1
 C         1.406039        -0.129938        -0.078508
 C        -0.046055        -0.159770        -0.405005
 C        -1.227508         0.098337        -0.112468
 C        -2.681229         0.160556         0.193923
 O        -3.042696        -0.278519         1.578507
 C        -3.300078         1.510684        -0.012497
 C        -4.663813         1.468096        -0.451488
 C        -5.021962         1.246751        -1.984904
 O        -5.207383         2.542889        -1.255159
 H         1.907665         0.634564        -0.751746
 H         1.429910         0.214154         1.010230
 H         1.872201        -1.169121        -0.186687
 H        -2.967224        -0.495301        -0.637609
 H        -2.618862        -1.126051         1.595638
 H        -3.092773         2.111088         0.993067
 H        -2.591610         1.962184        -0.823864
 H        -5.384869         0.943691         0.277909
 H        -4.228434         1.141204        -2.751724
 H        -5.910633         0.815888        -2.421015
