19
Iteration:  1543
 C         0.350305        -0.015352        -1.591185
 C        -0.763269        -0.033044        -0.631846
 C        -1.597518        -0.063216         0.352624
 C        -2.856523         0.075612         1.083028
 O        -2.895401         0.620372         2.453887
 C        -4.029788         0.810840         0.349815
 C        -4.106621         0.915280        -1.058908
 C        -3.320067         1.835053        -1.849786
 O        -4.690068         2.037168        -1.622232
 H         0.045781         0.144353        -2.569851
 H         1.072968         0.724217        -1.422272
 H         0.802444        -0.989770        -1.602355
 H        -3.064550        -0.969174         1.332802
 H        -2.505006         1.544545         2.447851
 H        -4.970234         0.372904         0.855985
 H        -3.861266         1.827142         0.719853
 H        -4.519484         0.051174        -1.601413
 H        -2.725424         2.476685        -1.180628
 H        -3.009141         1.587616        -2.842145
