19
Iteration:  2925
 C         0.060883         0.464120        -1.523209
 C        -1.000846         0.187984        -0.551895
 C        -1.726591        -0.014907         0.372594
 C        -2.981337        -0.118377         1.103389
 O        -2.712189         0.154012         2.466805
 C        -3.859092         0.915041         0.441902
 C        -3.957208         0.930876        -1.035984
 C        -3.176717         1.791630        -1.986662
 O        -4.560150         1.977046        -1.760648
 H        -0.275612         1.363350        -2.073242
 H         0.925683         0.554536        -0.808749
 H         0.208550        -0.376032        -2.221546
 H        -3.242464        -1.156566         0.911945
 H        -3.375351         0.744756         2.853760
 H        -4.964181         0.753412         0.738278
 H        -3.629665         1.872499         0.880385
 H        -4.048411        -0.095846        -1.442483
 H        -2.633165         2.733486        -1.727748
 H        -2.887241         1.211787        -2.963458
