19
Iteration:  1963charge 0 multiplicity 1
 C         1.023200         0.111309        -0.776970
 C        -0.315683         0.070813        -0.227300
 C        -1.359194        -0.103779         0.317854
 C        -2.763505         0.038172         0.575780
 O        -3.090796         0.169257         2.126314
 C        -3.208315         1.323775        -0.016441
 C        -4.567144         1.179852        -0.742552
 C        -4.552708         1.226208        -2.315426
 O        -5.015874         2.297717        -1.443471
 H         1.705341         0.617423        -0.094771
 H         1.572189        -0.729346        -1.137715
 H         0.893122         0.728031        -1.646235
 H        -3.478784        -0.852180         0.379915
 H        -2.349331        -0.250875         2.529236
 H        -3.237853         1.943700         0.886644
 H        -2.356465         1.696665        -0.674643
 H        -5.284416         0.633578        -0.098157
 H        -3.556596         1.553795        -2.665261
 H        -5.280822         0.626658        -2.899961
