19
Iteration:  4047charge 0 multiplicity 1
 C         1.237618        -0.327755        -0.616521
 C        -0.183113        -0.140457        -0.253494
 C        -1.359303         0.186335         0.085005
 C        -2.703803         0.280659         0.622378
 O        -2.908176         0.353838         2.111795
 C        -3.464158         1.540561         0.092779
 C        -4.685432         1.232614        -0.730581
 C        -4.515755         1.102696        -2.198281
 O        -5.276294         2.206702        -1.647759
 H         1.475876        -0.788894        -1.607506
 H         1.845517         0.603305        -0.509990
 H         1.733715        -1.105197         0.127080
 H        -3.156435        -0.733161         0.484162
 H        -2.397138        -0.417680         2.556571
 H        -3.817519         2.165729         0.942726
 H        -2.759564         2.145297        -0.405353
 H        -5.359365         0.484638        -0.329845
 H        -3.535950         1.378062        -2.470235
 H        -4.994809         0.412874        -2.955790
