19
Iteration:   276
 C         1.539869        -0.361520         0.264182
 C         0.174270         0.211705         0.072689
 C        -1.026740         0.126177         0.039324
 C        -2.493048         0.095678        -0.237622
 O        -3.113960        -0.636522         0.912026
 C        -3.192383         1.557574        -0.649046
 C        -4.574826         1.815530        -0.345545
 C        -5.588461         1.171218        -1.207432
 O        -5.343643         2.573296        -1.248611
 H         1.662420        -1.304751        -0.286743
 H         2.304274         0.313656        -0.091245
 H         1.732588        -0.498723         1.331972
 H        -2.674956        -0.653580        -1.132095
 H        -3.760641        -0.036659         1.364022
 H        -2.532877         2.277706        -0.084639
 H        -2.983245         1.740593        -1.660788
 H        -4.813218         1.972365         0.643747
 H        -5.101913         0.474925        -1.819221
 H        -6.571068         0.922435        -0.869333
