19
Iteration:  1106
 C         1.458859        -0.115655        -0.216960
 C         0.066240        -0.151711        -0.173977
 C        -1.119956        -0.063682         0.142939
 C        -2.576097         0.145395         0.226943
 O        -3.272981        -0.240665         1.476719
 C        -3.133062         1.578096        -0.203955
 C        -4.684019         1.655325        -0.437045
 C        -5.244798         1.086225        -1.771008
 O        -5.155078         2.468880        -1.480017
 H         1.743957        -0.818991         0.577538
 H         1.926445        -0.494309        -1.162780
 H         1.927467         0.857100         0.006759
 H        -3.120119        -0.593442        -0.533083
 H        -2.760406         0.080265         2.214762
 H        -2.962626         2.465092         0.519630
 H        -2.972510         2.055016        -1.211867
 H        -5.384752         1.363374         0.409325
 H        -4.499308         0.611115        -2.374015
 H        -6.253582         0.804558        -1.936652
