19
Iteration:  1736
 C         0.598071         0.022547        -1.200953
 C        -0.633062         0.008386        -0.339077
 C        -1.628301        -0.216373         0.334567
 C        -2.852422         0.007232         1.012848
 O        -2.702018         0.511315         2.302396
 C        -3.851367         1.050299         0.341003
 C        -4.230429         0.890734        -1.143780
 C        -3.687563         1.767104        -2.147553
 O        -4.954439         2.187087        -1.592444
 H         0.743090         1.013863        -1.736297
 H         1.531049        -0.513546        -0.902039
 H         0.404322        -0.628922        -2.112321
 H        -3.502203        -0.984692         1.072731
 H        -1.920238         0.094909         2.717781
 H        -4.788775         1.087892         0.838783
 H        -3.146850         1.915709         0.362508
 H        -4.813364         0.000246        -1.362462
 H        -2.894793         2.540390        -2.014275
 H        -3.677002         1.538529        -3.217430
