19
Iteration:  2777charge 0 multiplicity 1
 C         0.587869         0.196183        -1.210867
 C        -0.625985         0.017573        -0.415108
 C        -1.677097        -0.058776         0.201411
 C        -2.991184        -0.076566         0.914209
 O        -2.518386         0.182903         2.291156
 C        -3.959570         0.955794         0.393528
 C        -4.163134         0.971509        -1.114999
 C        -3.592428         2.036920        -1.930959
 O        -4.979567         2.030601        -1.667801
 H         0.280010         0.551418        -2.196513
 H         1.229317         1.006902        -0.844308
 H         1.160286        -0.725316        -1.102047
 H        -3.448176        -1.040590         0.922709
 H        -3.341133         0.534880         2.633768
 H        -4.935582         0.789957         1.011755
 H        -3.390637         1.917274         0.841125
 H        -4.159907        -0.037507        -1.603785
 H        -3.146300         2.881791        -1.476132
 H        -3.202609         1.773098        -2.928602
