19
Iteration:  2904
 C        -0.025674         0.426634        -1.677813
 C        -0.872513         0.284405        -0.480695
 C        -1.750344         0.066417         0.387993
 C        -2.995632        -0.085749         1.193447
 O        -2.697075         0.039267         2.626427
 C        -4.033900         0.878768         0.491124
 C        -3.878199         0.885676        -1.123918
 C        -3.103664         1.823637        -2.004658
 O        -4.524399         1.998686        -1.842416
 H        -0.613237         1.158187        -2.370190
 H         1.004338         0.800607        -1.357470
 H        -0.080719        -0.499492        -2.302200
 H        -3.318568        -1.147504         1.049439
 H        -3.157652         0.922470         2.786056
 H        -5.101315         0.710785         0.672465
 H        -3.885695         1.904437         0.741630
 H        -4.211690        -0.080639        -1.572892
 H        -2.461727         2.353547        -1.299593
 H        -2.676370         1.490190        -3.022944
