19
Iteration:  4639charge 0 multiplicity 1
 C         0.841656        -0.563260        -0.675666
 C        -0.539349        -0.200761        -0.336326
 C        -1.629964        -0.047597         0.077370
 C        -2.826485         0.266114         0.798660
 O        -2.485149         0.558530         2.209964
 C        -3.740322         1.426627         0.358910
 C        -4.175696         1.125351        -1.043546
 C        -4.107731         2.011644        -2.287158
 O        -5.335376         1.801560        -1.684670
 H         1.569700         0.162442        -0.972305
 H         1.384058        -1.201125         0.160222
 H         0.890272        -1.268310        -1.554991
 H        -3.561830        -0.553578         0.741010
 H        -1.625197         0.227955         2.480386
 H        -4.376419         1.163681         1.176287
 H        -3.335366         2.385986         0.624491
 H        -4.111487         0.004317        -1.089865
 H        -3.654123         3.043893        -2.188114
 H        -3.917252         1.652003        -3.218319
