19
Iteration:   550
 C         1.309064         0.015146        -0.580698
 C        -0.107498         0.055148        -0.178069
 C        -1.281783        -0.144544         0.177291
 C        -2.750256         0.068003         0.348489
 O        -3.352092        -0.059154         1.685648
 C        -3.159125         1.376236        -0.100176
 C        -4.525348         1.255921        -0.608054
 C        -4.709429         1.411625        -2.069685
 O        -5.169068         2.416298        -1.113290
 H         1.398632         0.388343        -1.644312
 H         1.891779         0.687061         0.099312
 H         1.706161        -1.039240        -0.617924
 H        -3.234953        -0.771500        -0.215520
 H        -2.895722        -0.875410         1.989696
 H        -2.869694         2.116118         0.763342
 H        -2.599452         1.675821        -1.022570
 H        -5.096047         0.769775         0.094831
 H        -3.830801         1.730444        -2.621990
 H        -5.448300         0.751232        -2.567242
