19
Iteration:  3165charge 0 multiplicity 1
 C         1.258281        -0.126505        -0.385447
 C        -0.232844         0.009263        -0.344153
 C        -1.375688         0.083330        -0.022681
 C        -2.726972         0.073370         0.484923
 O        -2.789369        -0.011750         1.960273
 C        -3.492376         1.384785         0.094830
 C        -4.598609         1.117086        -0.865169
 C        -4.487445         1.519307        -2.277970
 O        -5.281115         2.281711        -1.265789
 H         1.622578         0.676276         0.263415
 H         1.388113        -1.123448         0.101638
 H         1.691936         0.081576        -1.368174
 H        -3.270196        -0.791254         0.066127
 H        -3.695696         0.219842         2.237069
 H        -3.987164         1.815541         0.913510
 H        -2.940930         2.214493        -0.277336
 H        -5.101969         0.227109        -0.448260
 H        -3.619308         2.257687        -2.515063
 H        -5.080374         0.963446        -3.022266
