19
Iteration:  4648charge 0 multiplicity 1
 C         0.931859        -0.584289        -0.689866
 C        -0.454957        -0.225663        -0.342289
 C        -1.592481        -0.091230         0.082946
 C        -2.848041         0.245931         0.827098
 O        -2.508606         0.567126         2.174916
 C        -3.758170         1.469278         0.361015
 C        -4.259753         1.150948        -1.008422
 C        -4.086555         2.007572        -2.280934
 O        -5.366918         1.823523        -1.680848
 H         1.464082         0.357381        -0.800598
 H         1.346716        -1.115288         0.246886
 H         0.887280        -1.281891        -1.571830
 H        -3.404592        -0.726923         0.885180
 H        -1.656768         0.113455         2.282146
 H        -4.665055         1.393125         1.097616
 H        -3.170759         2.359876         0.440505
 H        -4.401296         0.045810        -1.189675
 H        -3.674597         3.006571        -2.214744
 H        -3.897956         1.523088        -3.203884
