19
Iteration:  2228charge 0 multiplicity 1
 C         1.388372        -0.422371         0.674496
 C         0.104550         0.124834         0.147670
 C        -1.031294         0.174022        -0.169235
 C        -2.490070         0.230534        -0.457310
 O        -3.036069        -0.060126         0.873679
 C        -3.056813         1.548609        -0.981772
 C        -4.481968         1.819475        -0.436972
 C        -5.611211         0.849529        -0.781545
 O        -5.460445         2.243030        -1.358401
 H         1.218991        -1.173340         1.499808
 H         2.072004        -0.750164        -0.139090
 H         1.967129         0.301257         1.288086
 H        -2.781937        -0.501409        -1.183709
 H        -2.291279         0.077755         1.439829
 H        -2.534494         2.457721        -0.706660
 H        -3.108867         1.482250        -2.072148
 H        -4.472830         2.108182         0.614214
 H        -5.531030         0.075192        -1.584064
 H        -6.454717         0.699916        -0.109603
