19
Iteration:   399
 C         1.326944        -0.096199        -0.050022
 C        -0.102229         0.047531        -0.106136
 C        -1.290127        -0.021213        -0.029747
 C        -2.637088         0.045221         0.065237
 O        -2.947720        -0.354155         1.445290
 C        -3.062272         1.585918        -0.288449
 C        -4.567769         1.590975        -0.460319
 C        -5.207846         1.113996        -1.709843
 O        -5.192174         2.569710        -1.321361
 H         1.705170        -0.351466        -1.037617
 H         1.945274         0.719769         0.348664
 H         1.465527        -0.918921         0.638898
 H        -3.159490        -0.562826        -0.748912
 H        -3.796874        -0.870263         1.485121
 H        -2.892538         2.439001         0.377019
 H        -2.545466         1.720661        -1.230454
 H        -5.220701         1.373314         0.517639
 H        -4.565123         0.671937        -2.449497
 H        -6.200514         0.733804        -1.668449
