19
Iteration:  4324charge 0 multiplicity 1
 C         0.474524        -0.213169        -1.159295
 C        -0.639259        -0.083266        -0.361905
 C        -1.643429         0.205922         0.223300
 C        -2.890279         0.236797         0.950475
 O        -2.575837         0.628067         2.395293
 C        -3.960210         1.110133         0.444622
 C        -4.452995         0.934021        -0.987273
 C        -3.648838         1.223676        -2.239908
 O        -4.659013         2.204142        -1.744981
 H         0.188203         0.465339        -2.025286
 H         1.308608         0.273709        -0.533354
 H         0.706581        -1.243354        -1.502158
 H        -3.295276        -0.791727         0.947540
 H        -1.660108         0.940242         2.190168
 H        -4.773274         1.011442         1.147276
 H        -3.718468         2.162196         0.755819
 H        -5.264221         0.292804        -1.149777
 H        -2.635806         1.537092        -2.170682
 H        -3.948266         0.672769        -3.220333
