19
Iteration:  3640
 C         1.430232        -0.195092         0.287160
 C        -0.001009         0.028137         0.036269
 C        -1.224017        -0.048390        -0.066318
 C        -2.610877         0.191747        -0.102082
 O        -3.182230        -0.078947         1.254575
 C        -2.971763         1.536820        -0.612303
 C        -4.434584         1.808793        -0.534489
 C        -5.563537         0.983693        -1.024764
 O        -5.135141         2.203175        -1.711048
 H         1.562994        -1.268959         0.591784
 H         2.005995         0.071169        -0.527104
 H         1.607804         0.454469         1.167378
 H        -3.046807        -0.491431        -0.877595
 H        -2.381589        -0.232592         1.838300
 H        -2.496113         2.377870         0.003825
 H        -2.793603         1.440824        -1.696706
 H        -4.908243         2.418506         0.319378
 H        -5.374421         0.076049        -1.552457
 H        -6.587765         1.088334        -0.527242
