19
Iteration:  2401charge 0 multiplicity 1
 C         1.419463         0.184773         0.296979
 C         0.104985        -0.114459        -0.057469
 C        -1.154280        -0.033101         0.041421
 C        -2.545789        -0.097604        -0.164132
 O        -3.307965        -0.341982         1.117766
 C        -3.012133         1.364145        -0.643651
 C        -4.468744         1.710999        -0.493299
 C        -5.582586         1.078341        -1.058224
 O        -5.156417         2.541158        -1.516610
 H         2.242265        -0.565263         0.185785
 H         1.906091         0.853218        -0.457681
 H         1.498048         0.693394         1.262150
 H        -3.015648        -0.991345        -0.782448
 H        -2.839994         0.158703         1.865112
 H        -2.353359         1.968954         0.028885
 H        -2.508228         1.443968        -1.692912
 H        -4.675365         2.256807         0.440942
 H        -5.472075         0.319192        -1.791091
 H        -6.486097         1.140447        -0.496977
