19
Iteration:   147charge 0 multiplicity 1
 C         1.364215        -0.036298         0.443238
 C        -0.038928         0.146442        -0.029427
 C        -1.197062        -0.153949        -0.285207
 C        -2.680551        -0.010166        -0.422067
 O        -3.232999        -0.407494         0.831488
 C        -2.964625         1.543575        -0.600554
 C        -4.390481         1.759429        -0.217951
 C        -5.356700         1.073486        -1.081742
 O        -5.124603         2.536012        -1.089999
 H         1.550711        -1.112879         0.598874
 H         2.108287         0.345903        -0.264745
 H         1.520692         0.489555         1.388139
 H        -3.079028        -0.573490        -1.282473
 H        -4.119164        -0.798882         0.566910
 H        -2.342317         2.245288        -0.000777
 H        -2.877870         1.880166        -1.655485
 H        -4.533434         1.783764         0.936403
 H        -5.040845         0.567823        -1.949557
 H        -6.287898         0.838580        -0.628700
