19
Iteration:  2557
 C         1.344338        -0.054716        -0.460341
 C        -0.102269         0.044905        -0.030857
 C        -1.270630         0.001483         0.051520
 C        -2.664070         0.152553         0.346798
 O        -3.032755        -0.330413         1.768706
 C        -3.354193         1.483149        -0.078307
 C        -4.717932         1.218952        -0.669114
 C        -4.725764         1.430428        -2.210896
 O        -5.227671         2.390660        -1.212653
 H         1.544662        -0.677932        -1.364038
 H         1.547689         0.987576        -0.600464
 H         1.886168        -0.512775         0.373784
 H        -3.079455        -0.677131        -0.355022
 H        -2.905192         0.340939         2.460682
 H        -3.593061         2.162774         0.794386
 H        -2.733383         2.110720        -0.795227
 H        -5.375817         0.628069         0.022634
 H        -3.803066         1.847344        -2.624854
 H        -5.434248         1.085263        -2.915299
