19
Iteration:  4030charge 0 multiplicity 1
 C         1.220596        -0.387379        -0.465771
 C        -0.181646        -0.109674        -0.354843
 C        -1.304330         0.152152         0.159048
 C        -2.705401         0.382426         0.608879
 O        -2.751438         0.275570         2.158265
 C        -3.464097         1.611484         0.019943
 C        -4.725270         1.148316        -0.773522
 C        -4.538361         1.170460        -2.281228
 O        -5.332300         2.186444        -1.600345
 H         1.325378        -0.788882        -1.457953
 H         1.705391         0.600404        -0.429461
 H         1.497399        -0.972018         0.328930
 H        -3.281847        -0.478484         0.221671
 H        -2.593740        -0.680610         2.527291
 H        -3.801472         2.190004         0.888765
 H        -2.796828         2.147956        -0.835382
 H        -5.574222         0.596892        -0.266195
 H        -3.574430         1.530065        -2.807080
 H        -5.177558         0.453836        -2.771112
