19
Iteration:  2627
 C         1.359472        -0.227329        -0.593111
 C        -0.070924        -0.036614        -0.284951
 C        -1.228887         0.205247         0.134645
 C        -2.738579         0.200807         0.588029
 O        -2.863081        -0.147629         2.002516
 C        -3.726782         1.425457         0.236423
 C        -4.612395         1.093911        -0.957692
 C        -4.508696         1.782488        -2.301014
 O        -5.388368         2.194979        -1.320037
 H         1.583517        -0.597306        -1.618924
 H         1.783210         0.793512        -0.429992
 H         1.731292        -1.049081         0.046313
 H        -3.218502        -0.565857        -0.093084
 H        -2.395289        -0.974055         2.137354
 H        -4.211940         1.698692         1.120916
 H        -3.189124         2.212936        -0.066043
 H        -5.181974         0.193462        -0.977070
 H        -3.633830         2.446105        -2.352813
 H        -4.923335         1.348633        -3.269795
