19
Iteration:  2222charge 0 multiplicity 1
 C         1.377373        -0.428927         0.661783
 C         0.160324         0.097501         0.128216
 C        -1.057510         0.203882        -0.179179
 C        -2.479290         0.208175        -0.420117
 O        -3.057503        -0.054259         0.866736
 C        -3.072536         1.536231        -0.937404
 C        -4.519992         1.794658        -0.438132
 C        -5.553013         0.873291        -0.836391
 O        -5.454304         2.233148        -1.319761
 H         1.135270        -1.084414         1.471776
 H         2.094792        -0.673645        -0.101129
 H         1.943950         0.362717         1.173450
 H        -2.821927        -0.644095        -1.136757
 H        -2.344757         0.250777         1.477239
 H        -2.320760         2.410537        -0.814463
 H        -3.145176         1.515932        -2.040982
 H        -4.644068         2.394137         0.517965
 H        -5.439111         0.028263        -1.503536
 H        -6.535153         0.755385        -0.302774
