19
Iteration:  3067charge 0 multiplicity 1
 C         1.075528        -0.150687        -0.700133
 C        -0.340719         0.116993        -0.435436
 C        -1.489551         0.239397         0.057456
 C        -2.796295         0.158950         0.620329
 O        -2.683338         0.094112         2.050551
 C        -3.845165         1.217388         0.378543
 C        -4.543772         0.960358        -0.935429
 C        -4.009089         1.633234        -2.132026
 O        -5.141797         2.159809        -1.469203
 H         1.597019         0.796378        -0.618156
 H         1.376743        -0.975275        -0.007289
 H         1.249535        -0.474551        -1.741049
 H        -3.300741        -0.790126         0.220155
 H        -3.532808        -0.319363         2.331407
 H        -4.669059         1.232332         1.278108
 H        -3.432826         2.245792         0.416771
 H        -5.241728         0.101336        -0.976944
 H        -3.164469         2.419130        -1.995387
 H        -4.272877         1.189891        -3.174572
