19
Iteration:   917charge 0 multiplicity 1
 C         1.231933         0.005232         0.543158
 C        -0.026660         0.039452        -0.142625
 C        -1.210635        -0.160591        -0.378787
 C        -2.657446         0.025313        -0.221997
 O        -2.929433        -0.230630         1.168801
 C        -3.019506         1.299500        -0.773159
 C        -4.464499         1.621763        -0.402495
 C        -5.573713         1.208251        -1.172843
 O        -5.114375         2.575193        -1.228651
 H         1.098388         0.750902         1.375351
 H         1.391146        -0.952977         1.067703
 H         2.176389         0.210749         0.002185
 H        -3.221076        -0.751162        -0.849401
 H        -2.055204        -0.269938         1.673676
 H        -2.217093         2.017768        -0.494989
 H        -3.280486         1.423279        -1.884952
 H        -4.694596         1.516245         0.676045
 H        -5.333049         0.756126        -2.071169
 H        -6.507806         0.914850        -0.708631
