19
Iteration:  1406
 C         0.741813        -0.060016        -0.970711
 C        -0.611306        -0.093158        -0.477637
 C        -1.713288         0.041226         0.109144
 C        -2.938557         0.023613         0.939099
 O        -2.512193         0.182259         2.321407
 C        -3.835069         1.204087         0.430198
 C        -4.216125         1.023343        -1.042555
 C        -3.856594         1.771009        -2.239082
 O        -5.013736         2.159681        -1.578508
 H         0.668591        -0.731773        -1.874693
 H         1.202043         0.953567        -1.162467
 H         1.466389        -0.519134        -0.267119
 H        -3.480001        -0.879733         0.802228
 H        -1.983768         0.977737         2.312568
 H        -4.808560         1.101660         0.883312
 H        -3.490284         2.273226         0.472999
 H        -4.830583         0.187978        -1.340155
 H        -3.070952         2.576525        -2.216273
 H        -4.092999         1.252407        -3.192334
