19
Iteration:  2467charge 0 multiplicity 1
 C         1.380359         0.154694        -0.127331
 C        -0.084054         0.087226         0.185593
 C        -1.246522         0.016292         0.071123
 C        -2.677917        -0.184839         0.040195
 O        -3.147317        -0.388097         1.398450
 C        -3.050164         1.284909        -0.347338
 C        -4.591098         1.640289        -0.435571
 C        -5.380703         1.163066        -1.636088
 O        -5.006588         2.570497        -1.471809
 H         1.746636        -0.630444        -0.817200
 H         1.365388         0.978773        -0.853657
 H         2.098529         0.217634         0.673938
 H        -3.062859        -0.994451        -0.719554
 H        -2.398841         0.000775         1.826325
 H        -2.518219         1.971251         0.399043
 H        -2.705242         1.536303        -1.460974
 H        -5.069891         1.818928         0.561674
 H        -4.741250         0.738764        -2.355822
 H        -6.449247         1.090062        -1.820382
