19
Iteration:  4485charge 0 multiplicity 1
 C         0.363974        -0.444931        -1.342669
 C        -0.709070        -0.072516        -0.368196
 C        -1.706018        -0.051991         0.331040
 C        -2.782309         0.244025         1.177445
 O        -2.785654         0.777275         2.472750
 C        -3.693049         1.265304         0.349519
 C        -3.865738         1.006503        -1.181146
 C        -3.714939         2.131537        -2.116973
 O        -5.046099         1.476237        -1.814954
 H         0.601583         0.344664        -1.951230
 H         1.328637        -0.692128        -0.840563
 H         0.113553        -1.336996        -1.919172
 H        -3.207531        -0.796745         1.240966
 H        -2.001024         0.486867         2.965891
 H        -4.657059         1.361492         0.811911
 H        -3.191994         2.194296         0.500017
 H        -3.431012        -0.042663        -1.362148
 H        -3.642136         3.108315        -1.717209
 H        -3.315412         1.969169        -3.157885
