19
Iteration:  1898
 C         1.144594        -0.167108        -0.745296
 C        -0.246688        -0.000985        -0.369301
 C        -1.357697         0.221029         0.159810
 C        -2.849341         0.168017         0.654907
 O        -2.722416         0.069825         2.200531
 C        -3.693981         1.419539         0.380366
 C        -4.627423         1.231683        -0.827031
 C        -4.275656         1.237516        -2.219270
 O        -5.200395         2.292342        -1.727171
 H         1.684243         0.594747        -0.192099
 H         1.534357        -1.148161        -0.631805
 H         1.117543         0.102042        -1.771789
 H        -3.337000        -0.713696         0.193952
 H        -2.525326        -0.915098         2.301206
 H        -4.257664         1.508647         1.342471
 H        -3.102056         2.387186         0.105228
 H        -5.443337         0.507118        -0.698965
 H        -3.297551         1.777289        -2.472380
 H        -4.724825         0.392994        -2.884043
