19
Iteration:  3556charge 0 multiplicity 1
 C         1.387476        -0.374588         0.507955
 C         0.034693        -0.045696         0.271152
 C        -1.107532         0.252929        -0.040639
 C        -2.498133         0.150421        -0.286471
 O        -3.158867        -0.138647         0.896308
 C        -2.956919         1.547548        -0.828960
 C        -4.481648         1.963045        -0.532298
 C        -5.455487         0.949384        -0.767351
 O        -5.485926         2.168326        -1.577753
 H         1.525066        -1.376688         0.923906
 H         1.991844        -0.462472        -0.514219
 H         2.070536         0.359621         1.062725
 H        -2.645463        -0.633331        -1.048810
 H        -2.598533         0.163179         1.608626
 H        -2.130133         2.360165        -0.592345
 H        -2.804564         1.608644        -1.961598
 H        -4.616948         2.737820         0.260454
 H        -5.198950         0.140715        -1.417963
 H        -6.358358         0.900882        -0.060606
