19
Iteration:  1483charge 0 multiplicity 1
 C         0.504987        -0.062996        -1.191241
 C        -0.688213         0.075446        -0.437167
 C        -1.884263        -0.038772         0.012725
 C        -2.941769         0.106742         0.956821
 O        -2.397824         0.511040         2.203206
 C        -4.282206         0.831605         0.491234
 C        -4.254476         0.925748        -1.047777
 C        -3.410298         1.748154        -1.834431
 O        -4.762178         2.150105        -1.675880
 H         0.300619        -0.296715        -2.324775
 H         1.160736         0.884022        -1.013298
 H         1.150142        -0.877715        -0.723456
 H        -3.142989        -0.949131         1.203413
 H        -1.638934         1.174013         2.202759
 H        -5.262881         0.437038         0.661216
 H        -4.191387         1.825936         1.048949
 H        -4.655571         0.044013        -1.543721
 H        -2.652349         2.257439        -1.183859
 H        -3.014942         1.489624        -2.890848
