19
Iteration:   102
 C         1.578532         0.041122         0.304137
 C         0.112170        -0.330179         0.124052
 C        -1.056813        -0.053784        -0.077698
 C        -2.519915         0.068904        -0.298155
 O        -3.257133        -0.624666         0.757020
 C        -3.069537         1.523677        -0.578172
 C        -4.511593         1.707402        -0.364617
 C        -5.685585         1.328625        -1.163120
 O        -5.265103         2.667252        -1.161968
 H         2.196428        -0.784817         0.672178
 H         2.005261         0.394740        -0.620828
 H         1.617144         0.852011         1.033063
 H        -2.798408        -0.528201        -1.161255
 H        -2.801049        -0.396773         1.632705
 H        -2.525650         1.990324         0.248158
 H        -2.683529         1.985578        -1.434386
 H        -4.749521         1.942491         0.671193
 H        -5.587125         0.953022        -2.099392
 H        -6.488436         1.059429        -0.578284
