19
Iteration:  4521
 C         0.390516        -0.491107        -1.227917
 C        -0.674865        -0.264532        -0.291305
 C        -1.507125         0.062396         0.471390
 C        -2.767374         0.315872         1.068781
 O        -2.710841         0.766606         2.356255
 C        -3.736859         1.220594         0.262679
 C        -3.845582         1.007136        -1.223049
 C        -3.855794         2.164707        -2.141869
 O        -5.120697         1.520279        -1.718270
 H         0.577417         0.461364        -1.734531
 H         1.275812        -0.759650        -0.671003
 H         0.149543        -1.210217        -1.975220
 H        -3.219466        -0.723409         0.971907
 H        -2.438027         0.091981         2.951202
 H        -4.738233         1.102854         0.659442
 H        -3.417978         2.336989         0.357184
 H        -3.658515         0.087959        -1.717823
 H        -3.567229         3.174718        -1.588684
 H        -3.680688         2.253053        -3.197827
