19
Iteration:  2669
 C         1.105774        -0.181115        -0.601212
 C        -0.237173         0.091236        -0.196550
 C        -1.479263         0.179490         0.038674
 C        -2.800974         0.020463         0.498076
 O        -2.595525         0.082012         1.975666
 C        -3.747239         1.194522         0.308684
 C        -4.532138         1.044015        -0.986718
 C        -4.215038         1.943789        -2.184477
 O        -5.368720         2.120581        -1.384236
 H         1.062391        -0.390130        -1.667977
 H         1.800547         0.621906        -0.390164
 H         1.615788        -1.143865        -0.335414
 H        -3.204158        -1.020113         0.337295
 H        -2.612976        -0.792451         2.339312
 H        -4.389566         1.266463         1.210072
 H        -3.122473         2.057372         0.353121
 H        -4.942256         0.058253        -1.161802
 H        -3.414754         2.676618        -2.194152
 H        -4.488156         1.514863        -3.193420
