19
Iteration:  4129
 C         0.939170        -0.073923        -0.910715
 C        -0.405707         0.009334        -0.322087
 C        -1.375160         0.014897         0.369430
 C        -2.769492         0.166644         0.833879
 O        -2.894091         0.303700         2.261667
 C        -3.406314         1.461259         0.200441
 C        -4.589711         1.271332        -0.824359
 C        -4.452601         0.907646        -2.227724
 O        -4.914616         2.296636        -1.835764
 H         0.800164        -0.089143        -2.013693
 H         1.489578         0.840914        -0.677603
 H         1.431704        -0.906931        -0.517494
 H        -3.105592        -0.876837         0.710682
 H        -2.353166        -0.453923         2.666181
 H        -3.950232         2.123310         0.922683
 H        -2.561849         2.024434        -0.415186
 H        -5.513415         1.043652        -0.229880
 H        -3.386316         0.870967        -2.598856
 H        -5.183119         0.336544        -2.810805
