19
Iteration:  3391charge 0 multiplicity 1
 C         1.469246         0.002790         0.275759
 C         0.083124        -0.020497        -0.127813
 C        -1.166702        -0.143387        -0.014092
 C        -2.699688         0.045338        -0.030007
 O        -3.074805        -0.094366         1.364720
 C        -3.055936         1.451093        -0.549199
 C        -4.557074         1.643976        -0.473728
 C        -5.554662         1.046076        -1.389295
 O        -5.094964         2.462038        -1.534786
 H         1.401224        -0.287371         1.267462
 H         2.029322        -0.682053        -0.338667
 H         1.896175         0.993646         0.045450
 H        -3.393249        -0.654161        -0.533799
 H        -3.603171        -0.875679         1.618495
 H        -2.464485         2.332384        -0.101452
 H        -2.780725         1.368983        -1.647649
 H        -5.016657         1.850599         0.541729
 H        -5.033549         0.438150        -2.142422
 H        -6.524819         0.925773        -1.038123
