19
Iteration:   881
 C         1.405749         0.023885         0.502326
 C         0.079633        -0.040339        -0.148757
 C        -1.135288        -0.192578        -0.305982
 C        -2.555757        -0.069879        -0.239634
 O        -3.139561        -0.112526         1.096550
 C        -3.015079         1.263315        -0.758363
 C        -4.440213         1.613439        -0.314633
 C        -5.623129         1.236388        -1.273118
 O        -5.253196         2.623822        -1.162405
 H         1.406340         1.006597         1.094404
 H         1.377034        -0.828809         1.237303
 H         2.327898         0.075422        -0.154671
 H        -3.187821        -0.966832        -0.665904
 H        -2.407100        -0.363382         1.730163
 H        -2.272644         1.999994        -0.289500
 H        -2.819312         1.302194        -1.889155
 H        -4.707330         1.594853         0.716634
 H        -5.497450         0.734263        -2.261475
 H        -6.524688         0.854033        -0.762837
