19
Iteration:   912charge 0 multiplicity 1
 C         1.245777         0.009086         0.560898
 C        -0.000205         0.056554        -0.194771
 C        -1.206563        -0.167581        -0.383808
 C        -2.627096        -0.002270        -0.212777
 O        -2.973780        -0.214254         1.178492
 C        -3.052448         1.297549        -0.810620
 C        -4.420962         1.636130        -0.368546
 C        -5.596171         1.166226        -1.192111
 O        -5.107503         2.612339        -1.210257
 H         1.095113         0.788391         1.325197
 H         1.306773        -0.986636         1.046501
 H         2.235716         0.164197         0.100145
 H        -3.255313        -0.786239        -0.704221
 H        -2.172951        -0.297832         1.673476
 H        -2.291813         1.979935        -0.384730
 H        -3.068863         1.455944        -1.877299
 H        -4.721614         1.528802         0.680841
 H        -5.385088         0.599513        -2.176456
 H        -6.539522         0.835275        -0.712044
