19
Iteration:  3427
 C         1.386318        -0.115977         0.434158
 C         0.006543        -0.026051         0.071934
 C        -1.132457         0.002522        -0.277420
 C        -2.640528         0.056102        -0.185458
 O        -2.988348        -0.035653         1.223253
 C        -3.025206         1.418963        -0.629853
 C        -4.495284         1.707839        -0.446341
 C        -5.525279         0.997441        -1.132367
 O        -5.236661         2.383463        -1.542397
 H         1.567239        -0.548728         1.422098
 H         2.055288        -0.777430        -0.220489
 H         1.834879         0.850625         0.595592
 H        -2.958259        -0.774441        -0.872372
 H        -3.982760         0.024713         1.299916
 H        -2.321740         2.146443        -0.026648
 H        -2.822913         1.585650        -1.726983
 H        -4.812920         2.090784         0.528930
 H        -5.291179         0.274596        -1.885146
 H        -6.545638         0.669208        -0.781855
