19
Iteration:  2857
 C         0.013550         0.315663        -1.750589
 C        -0.820142         0.242942        -0.499087
 C        -1.557395         0.282427         0.478978
 C        -2.884164        -0.085789         0.999105
 O        -3.037093         0.191593         2.371223
 C        -3.951311         0.867335         0.419146
 C        -3.973043         0.821030        -1.004106
 C        -3.136074         1.809463        -1.692466
 O        -4.537568         1.950567        -1.743827
 H        -0.537966         0.711843        -2.573574
 H         0.948118         0.854775        -1.463123
 H         0.231243        -0.663195        -2.171402
 H        -3.216196        -1.086849         0.891895
 H        -2.158353        -0.065356         2.660436
 H        -4.912866         0.408786         0.946510
 H        -3.823242         1.920624         0.846184
 H        -4.234846        -0.116785        -1.409558
 H        -2.613759         2.709981        -1.166028
 H        -2.765183         1.602996        -2.723155
