19
Iteration:  4223charge 0 multiplicity 1
 C         0.706734         0.002962        -0.991536
 C        -0.589535         0.054049        -0.409104
 C        -1.697718        -0.062983         0.154703
 C        -2.871170         0.295367         0.841785
 O        -2.673646         0.236819         2.360134
 C        -3.656593         1.634959         0.472844
 C        -4.452470         1.272894        -0.763965
 C        -4.089629         0.837584        -2.176317
 O        -4.676725         2.135193        -1.974466
 H         0.609114         0.325843        -2.013465
 H         1.366606         0.801552        -0.498182
 H         1.242636        -1.016438        -0.895174
 H        -3.646226        -0.482183         0.661518
 H        -1.897982        -0.315950         2.594914
 H        -4.396696         1.870394         1.312343
 H        -2.908358         2.433666         0.281564
 H        -5.396987         0.730056        -0.523894
 H        -2.983424         0.765885        -2.525098
 H        -4.559007         0.116020        -2.833558
