19
Iteration:  1029charge 0 multiplicity 1
 C         1.465020        -0.215967        -0.015322
 C         0.093278         0.169066         0.203961
 C        -1.123163         0.102025         0.214635
 C        -2.622455         0.018667        -0.114081
 O        -3.334942        -0.290624         1.091499
 C        -3.054278         1.400772        -0.681240
 C        -4.529094         1.628912        -0.395910
 C        -5.432552         1.081040        -1.369131
 O        -5.123948         2.548457        -1.264090
 H         2.088661        -0.339992         0.842484
 H         1.408603        -1.099964        -0.649752
 H         1.925488         0.522092        -0.659930
 H        -2.723173        -0.887682        -0.694474
 H        -2.910056         0.082586         1.860913
 H        -2.360785         2.140533        -0.208280
 H        -3.120611         1.592944        -1.780389
 H        -5.046377         1.841768         0.596579
 H        -5.056978         0.576184        -2.258586
 H        -6.423381         0.829154        -1.140219
