19
Iteration:  2323charge 0 multiplicity 1
 C         1.422807        -0.155970         0.667198
 C         0.113150         0.017956         0.087050
 C        -1.091338         0.139637        -0.225775
 C        -2.497637         0.083034        -0.419056
 O        -3.228787        -0.142861         0.882260
 C        -3.006232         1.429346        -0.983562
 C        -4.374433         1.783654        -0.470087
 C        -5.562512         1.037654        -0.696924
 O        -5.447168         2.294018        -1.378791
 H         1.664953        -1.072436         1.236658
 H         2.298825         0.067977         0.006323
 H         1.445163         0.487519         1.553590
 H        -2.758083        -0.829271        -1.108567
 H        -2.530866        -0.434299         1.520464
 H        -2.205956         2.103508        -0.550597
 H        -2.942684         1.414081        -2.133774
 H        -4.422128         2.236517         0.517445
 H        -5.466385         0.218010        -1.413147
 H        -6.323124         0.962422         0.040483
