19
Iteration:  4391
 C         0.425942        -0.279680        -1.319150
 C        -0.746927        -0.078653        -0.453821
 C        -1.665372        -0.034536         0.370158
 C        -2.965161         0.173667         1.028753
 O        -2.609115         0.653450         2.445861
 C        -3.869509         1.319143         0.466970
 C        -4.119131         0.966979        -0.976525
 C        -3.530032         1.665694        -2.171005
 O        -4.925655         1.822566        -1.856218
 H         0.520356         0.476717        -2.215026
 H         1.431027        -0.134425        -0.843893
 H         0.589993        -1.245947        -1.816501
 H        -3.533055        -0.734042         1.201791
 H        -2.183290         1.537350         2.514346
 H        -4.757217         1.363468         1.113817
 H        -3.342225         2.293057         0.732534
 H        -4.396953        -0.042920        -1.102291
 H        -2.864505         2.544461        -1.990317
 H        -3.254632         1.121474        -3.090264
