19
Iteration:  1065
 C         1.439725        -0.165694        -0.223028
 C         0.065163        -0.046731         0.245219
 C        -1.161396         0.066426         0.245017
 C        -2.533962         0.086493         0.090504
 O        -3.349790        -0.305890         1.243598
 C        -2.960675         1.608946        -0.517524
 C        -4.557143         1.637918        -0.469394
 C        -5.416785         1.045795        -1.571066
 O        -5.197233         2.497323        -1.374365
 H         2.207791        -0.624131         0.335470
 H         1.361737        -0.780494        -1.087752
 H         1.750283         0.794823        -0.572184
 H        -2.778312        -0.657476        -0.578236
 H        -2.873059         0.003051         2.031713
 H        -2.516171         2.193435         0.253568
 H        -2.356751         1.737861        -1.364122
 H        -5.050511         1.564801         0.561912
 H        -5.074630         0.846794        -2.580442
 H        -6.421527         0.653361        -1.240892
