19
Iteration:  3241
 C         1.255370         0.026830        -0.500253
 C        -0.051666        -0.061077         0.066675
 C        -1.214225        -0.091956         0.348734
 C        -2.647656         0.043331         0.368073
 O        -3.121663        -0.078045         1.785027
 C        -3.196474         1.324033        -0.160976
 C        -4.635792         1.279622        -0.816100
 C        -4.922663         1.434785        -2.220363
 O        -5.207987         2.460221        -1.287217
 H         1.897039         0.668562         0.154423
 H         1.681254        -1.054131        -0.691321
 H         0.983418         0.540554        -1.475831
 H        -3.082256        -0.878545        -0.004197
 H        -2.238150        -0.258503         2.225673
 H        -3.352417         1.863286         0.725710
 H        -2.526017         1.888968        -0.774629
 H        -5.209755         0.609454        -0.148155
 H        -4.140736         1.689907        -3.037233
 H        -5.781742         0.942466        -2.685698
