19
Iteration:  4351charge 0 multiplicity 1
 C         0.565733        -0.282939        -1.292827
 C        -0.679327         0.014293        -0.471130
 C        -1.669675         0.092946         0.275540
 C        -2.970447         0.271153         1.103462
 O        -2.631465         0.676808         2.471833
 C        -3.909976         1.145987         0.389546
 C        -4.390933         0.804320        -1.076628
 C        -3.557349         1.405680        -2.202966
 O        -4.751644         2.088569        -1.681038
 H         0.478151         0.353591        -2.197026
 H         1.367031         0.015590        -0.678770
 H         0.608546        -1.335033        -1.583475
 H        -3.485640        -0.724242         1.195867
 H        -1.801020         1.127122         2.225165
 H        -4.791444         1.410458         1.049660
 H        -3.458650         2.115232         0.301216
 H        -5.174983        -0.027186        -1.348138
 H        -2.599285         1.866129        -1.830012
 H        -3.651058         1.134909        -3.197156
