19
Iteration:  2579charge 0 multiplicity 1
 C         1.274112        -0.120908        -0.507330
 C        -0.091969         0.136157        -0.005057
 C        -1.363474         0.084393         0.081482
 C        -2.753721         0.064687         0.471916
 O        -2.920665        -0.310588         1.774426
 C        -3.340381         1.488619         0.053206
 C        -4.561314         1.184555        -0.801423
 C        -4.636557         1.553241        -2.240912
 O        -5.379160         2.344801        -1.257739
 H         1.146937        -0.816874        -1.364714
 H         1.822244         0.779577        -0.706251
 H         1.681682        -0.877270         0.190465
 H        -3.218453        -0.576442        -0.342528
 H        -2.410922         0.314176         2.345407
 H        -3.588646         2.164042         0.939359
 H        -2.630363         2.136774        -0.586455
 H        -5.200377         0.316100        -0.493696
 H        -3.822632         1.995693        -2.837327
 H        -5.304943         0.914000        -2.751106
