19
Iteration:   139
 C         1.445309        -0.012512         0.432562
 C        -0.028270         0.073346        -0.000961
 C        -1.205431        -0.202211        -0.273284
 C        -2.609389         0.008311        -0.403987
 O        -3.265143        -0.362988         0.801450
 C        -3.028268         1.543597        -0.586073
 C        -4.373111         1.711613        -0.191285
 C        -5.417695         1.181623        -1.085426
 O        -5.145563         2.524668        -1.120919
 H         1.716717        -1.076443         0.622692
 H         2.205271         0.344145        -0.325569
 H         1.597404         0.583437         1.355178
 H        -2.914186        -0.706066        -1.266661
 H        -3.823432        -1.184798         0.586947
 H        -2.508870         2.208156         0.189910
 H        -2.909877         1.875980        -1.711200
 H        -4.631903         1.913029         0.917377
 H        -5.133474         0.611921        -2.075237
 H        -6.418936         0.793511        -0.633165
