19
Iteration:  4204
 C         0.765575         0.065746        -1.020998
 C        -0.536753        -0.011415        -0.330906
 C        -1.573762        -0.085231         0.301902
 C        -2.953057         0.235248         0.884297
 O        -2.678418         0.237576         2.261332
 C        -3.532230         1.568488         0.342283
 C        -4.610028         1.336681        -0.809397
 C        -4.115391         0.863626        -2.101621
 O        -4.720113         2.155705        -1.955521
 H         0.614136         0.229773        -2.139790
 H         1.439672         0.864048        -0.523600
 H         1.223953        -0.940542        -0.824996
 H        -3.715652        -0.553880         0.715512
 H        -2.140971        -0.512675         2.439787
 H        -4.175027         2.141444         0.992824
 H        -2.968527         2.507057        -0.025783
 H        -5.551888         1.036998        -0.485009
 H        -3.010578         0.824692        -2.304757
 H        -4.649871         0.029411        -2.649917
