19
Iteration:  3884
 C         1.193844        -0.337281        -0.349345
 C        -0.134520         0.023079         0.007273
 C        -1.311750        -0.098021         0.231307
 C        -2.696161         0.190093         0.409822
 O        -2.773602         0.307599         1.918129
 C        -3.212996         1.495427        -0.172080
 C        -4.539839         1.145047        -0.881435
 C        -4.899354         1.350324        -2.287684
 O        -5.401866         2.217267        -1.347915
 H         1.064923        -1.144006        -0.977349
 H         1.635688         0.482366        -0.838917
 H         1.707042        -0.594257         0.563541
 H        -3.328001        -0.604177         0.009125
 H        -2.166183         0.990218         2.089470
 H        -3.580547         2.145523         0.703948
 H        -2.310202         1.838258        -0.841748
 H        -5.115470         0.510751        -0.241261
 H        -4.152085         1.582774        -3.061653
 H        -5.735635         0.766713        -2.741240
