19
Iteration:  4850charge 0 multiplicity 1
 C         0.975077        -0.306740        -0.795056
 C        -0.488160        -0.009732        -0.389100
 C        -1.605071         0.080645         0.135884
 C        -2.844743         0.213494         0.733783
 O        -2.808966         0.108875         2.190504
 C        -3.582154         1.612868         0.291682
 C        -4.682961         1.375694        -0.740322
 C        -4.217537         1.045959        -2.105820
 O        -4.732412         2.318807        -1.793078
 H         1.585471         0.593959        -0.440036
 H         1.267704        -1.198534        -0.256041
 H         0.980521        -0.445439        -1.875583
 H        -3.580614        -0.660946         0.379336
 H        -2.081299        -0.361772         2.480063
 H        -3.715007         2.304397         1.060854
 H        -2.756989         1.995671        -0.380145
 H        -5.630219         1.012022        -0.330493
 H        -3.265245         1.039825        -2.519690
 H        -4.783541         0.335814        -2.775403
