19
Iteration:  1883charge 0 multiplicity 1
 C         1.090704        -0.208059        -0.727830
 C        -0.353473         0.068177        -0.384591
 C        -1.478903         0.273406         0.069456
 C        -2.746797         0.233666         0.708025
 O        -2.714354         0.041866         2.106313
 C        -3.755765         1.441537         0.355201
 C        -4.688807         1.189056        -0.808906
 C        -4.144608         1.279289        -2.214599
 O        -5.138402         2.203902        -1.645884
 H         1.782681         0.460199        -0.167146
 H         1.230758        -1.264855        -0.353413
 H         1.525690        -0.153004        -1.759734
 H        -3.251938        -0.775199         0.334288
 H        -1.985812        -0.537477         2.316242
 H        -4.426428         1.569662         1.201489
 H        -3.165064         2.293624         0.357839
 H        -5.442428         0.412194        -0.512517
 H        -3.146623         1.650695        -2.465625
 H        -4.541366         0.690379        -3.008360
