19
Iteration:   348
 C         1.608338        -0.145127         0.033942
 C         0.146739        -0.220024         0.018783
 C        -1.064996        -0.117128        -0.044748
 C        -2.568292         0.197436        -0.022366
 O        -3.287076        -0.125262         1.063634
 C        -3.117676         1.608378        -0.329875
 C        -4.621390         1.562855        -0.317310
 C        -5.448982         1.124603        -1.488029
 O        -5.255124         2.484591        -1.286078
 H         2.056581        -0.453734        -0.921706
 H         1.886420         0.934019         0.059789
 H         2.065602        -0.497963         0.988445
 H        -2.848599        -0.415300        -0.896030
 H        -3.405846        -1.081185         1.094094
 H        -2.925885         2.189582         0.597634
 H        -2.572075         2.071671        -1.239770
 H        -5.191269         1.548667         0.685834
 H        -5.069314         0.679700        -2.481741
 H        -6.524149         0.738785        -1.276060
