19
Iteration:  2729charge 0 multiplicity 1
 C         0.863808         0.063280        -0.792824
 C        -0.517745        -0.097247        -0.545947
 C        -1.651452         0.004451         0.013018
 C        -2.894048        -0.062578         0.808955
 O        -2.557017         0.098835         2.138547
 C        -3.889962         1.131881         0.381951
 C        -4.226900         1.084448        -1.060039
 C        -3.864854         2.035727        -2.037292
 O        -5.226209         2.001944        -1.511771
 H         0.954604         0.378008        -1.865106
 H         1.270860         0.979679        -0.267537
 H         1.364113        -0.794092        -0.328312
 H        -3.321130        -1.092980         0.726149
 H        -2.256020         1.051000         2.217088
 H        -4.657359         1.085519         1.111171
 H        -3.197513         1.973593         0.665424
 H        -4.473758         0.048206        -1.395441
 H        -3.185410         2.899931        -1.866190
 H        -3.789205         1.514303        -2.966709
