19
Iteration:  2278charge 0 multiplicity 1
 C         1.462271        -0.269019         0.779148
 C         0.158299        -0.147675         0.210268
 C        -0.966959         0.225622        -0.211144
 C        -2.425312         0.128069        -0.505118
 O        -3.032438         0.008056         0.783592
 C        -3.139334         1.477128        -1.052028
 C        -4.467002         1.791407        -0.380234
 C        -5.635442         1.004744        -0.682652
 O        -5.570254         2.255809        -1.395173
 H         1.595862        -1.190931         1.335084
 H         2.211218        -0.388738        -0.017838
 H         1.729565         0.499885         1.532479
 H        -2.628144        -0.715555        -1.285542
 H        -2.807359        -0.929378         1.053722
 H        -2.646812         2.406723        -0.630709
 H        -3.313578         1.585862        -2.162606
 H        -4.475868         2.526399         0.415279
 H        -5.441413         0.059869        -1.196561
 H        -6.420730         1.000740         0.075795
