19
Iteration:  1434
 C         0.734764        -0.021073        -0.980570
 C        -0.691001        -0.175633        -0.619429
 C        -1.770416        -0.022537        -0.042015
 C        -2.905243         0.098338         0.859969
 O        -2.524394         0.358372         2.272626
 C        -3.960301         1.152555         0.463848
 C        -4.403989         0.958170        -1.009986
 C        -3.574414         1.772311        -1.944051
 O        -4.919701         2.081349        -1.595577
 H         0.827377        -0.476270        -1.961764
 H         1.075018         1.003689        -0.882144
 H         1.411999        -0.523988        -0.265472
 H        -3.428147        -0.931049         0.866187
 H        -2.055032         1.180531         2.215758
 H        -4.811292         0.875899         1.137559
 H        -3.729562         2.194838         0.479005
 H        -4.909837         0.048387        -1.424348
 H        -2.940889         2.499792        -1.488447
 H        -3.472937         1.531775        -2.966471
