19
Iteration:   708charge 0 multiplicity 1
 C         1.402815        -0.104046        -0.062083
 C        -0.021624        -0.246018        -0.109824
 C        -1.197043        -0.050411        -0.127006
 C        -2.654736         0.085236         0.040402
 O        -2.929515        -0.282856         1.414019
 C        -3.229812         1.651747        -0.020911
 C        -4.663268         1.560612        -0.423484
 C        -5.059688         1.234996        -1.814711
 O        -5.400176         2.582631        -1.361690
 H         1.645843         0.748285        -0.720841
 H         1.595075         0.160106         0.987892
 H         1.934292        -1.024924        -0.336919
 H        -3.109489        -0.427310        -0.814908
 H        -2.650010        -1.217430         1.589862
 H        -3.123033         2.130513         0.972972
 H        -2.441867         2.022889        -0.721071
 H        -5.344048         1.119073         0.314152
 H        -4.294607         1.137372        -2.580468
 H        -5.858740         0.567689        -2.056470
