19
Iteration:  2668
 C         1.100467        -0.182439        -0.600101
 C        -0.230498         0.085481        -0.195384
 C        -1.468346         0.184329         0.039465
 C        -2.795604         0.021473         0.493151
 O        -2.603578         0.084052         1.968313
 C        -3.741016         1.185504         0.310416
 C        -4.535349         1.044104        -0.977889
 C        -4.226512         1.944723        -2.184262
 O        -5.367910         2.123093        -1.384535
 H         1.044918        -0.382136        -1.676486
 H         1.795894         0.602899        -0.375172
 H         1.637204        -1.123843        -0.309912
 H        -3.185065        -1.001715         0.311138
 H        -2.642455        -0.802081         2.343598
 H        -4.424127         1.287438         1.219518
 H        -3.093692         2.110392         0.331089
 H        -4.946778         0.036719        -1.159254
 H        -3.414046         2.660306        -2.199542
 H        -4.462032         1.498591        -3.172927
