19
Iteration:  4853charge 0 multiplicity 1
 C         0.955789        -0.297839        -0.807430
 C        -0.469343        -0.000381        -0.370722
 C        -1.592993         0.086468         0.125564
 C        -2.866320         0.206066         0.721128
 O        -2.821078         0.123273         2.169964
 C        -3.578592         1.615302         0.308998
 C        -4.696996         1.386141        -0.729653
 C        -4.223201         1.025044        -2.129529
 O        -4.694744         2.315190        -1.777299
 H         1.570855         0.535186        -0.438092
 H         1.277527        -1.170743        -0.302251
 H         0.997140        -0.474101        -1.905315
 H        -3.558569        -0.655772         0.571658
 H        -2.041377        -0.433555         2.474326
 H        -3.868424         2.306244         1.119405
 H        -2.763979         1.949023        -0.269361
 H        -5.619793         0.971900        -0.306016
 H        -3.174496         0.993662        -2.660328
 H        -4.892681         0.319413        -2.714337
