19
Iteration:  4979
 C         0.509651         0.020876        -1.055902
 C        -0.771470         0.146420        -0.508995
 C        -1.856167         0.042429         0.040207
 C        -3.016241         0.156155         0.902314
 O        -2.645589         0.045187         2.258771
 C        -3.768588         1.485229         0.561978
 C        -4.626218         1.521555        -0.851340
 C        -4.014393         0.725895        -1.980646
 O        -3.902213         2.157074        -1.877188
 H         1.234607         0.733851        -0.549027
 H         0.834354        -1.052752        -1.061235
 H         0.466583         0.403053        -2.089566
 H        -3.909286        -0.489711         0.676190
 H        -2.252581         0.983826         2.455712
 H        -4.577927         1.753018         1.322700
 H        -3.050860         2.434819         0.504606
 H        -5.680233         1.813787        -0.831904
 H        -3.097657         0.272308        -1.708292
 H        -4.635203         0.311776        -2.845580
