19
Iteration:  3855
 C         1.395476        -0.287727        -0.425774
 C        -0.060824        -0.128102        -0.074291
 C        -1.250865         0.012629         0.191030
 C        -2.746155         0.201485         0.544127
 O        -3.032275         0.312981         2.011419
 C        -3.255198         1.387087        -0.337720
 C        -4.630616         1.203751        -0.770952
 C        -4.805247         1.346522        -2.245853
 O        -5.377495         2.259324        -1.345449
 H         1.359611        -1.152393        -1.165120
 H         1.579445         0.701408        -1.027473
 H         1.968331        -0.410974         0.486288
 H        -3.241284        -0.742094         0.083874
 H        -2.222657         0.641560         2.479371
 H        -3.111999         2.338709         0.088330
 H        -2.461555         1.335198        -1.068159
 H        -5.362688         0.593655        -0.180340
 H        -3.996233         1.541981        -2.956829
 H        -5.719678         0.767606        -2.675013
