19
Iteration:  4085
 C         1.014031        -0.224172        -0.786472
 C        -0.256564         0.000202        -0.069999
 C        -1.392831         0.047017         0.272180
 C        -2.767951         0.322783         0.682457
 O        -2.834750         0.276156         2.094124
 C        -3.425436         1.581169         0.082557
 C        -4.667507         1.146244        -0.837632
 C        -4.494388         0.967823        -2.229306
 O        -5.031534         2.251278        -1.639847
 H         0.716693        -0.414219        -1.826576
 H         1.584904         0.711830        -0.765511
 H         1.561067        -1.005640        -0.337739
 H        -3.427688        -0.427840         0.180896
 H        -2.156601        -0.323440         2.522412
 H        -3.775864         2.085070         1.028813
 H        -2.693451         2.343482        -0.493497
 H        -5.394002         0.576230        -0.238491
 H        -3.404884         0.994347        -2.587431
 H        -5.252707         0.530873        -2.836690
