19
Iteration:  2132charge 0 multiplicity 1
 C         1.548494        -0.188745         0.119214
 C         0.130710        -0.067310         0.145509
 C        -1.114985         0.041308        -0.115732
 C        -2.609884         0.172119        -0.029096
 O        -3.101656        -0.000091         1.380650
 C        -3.116563         1.504662        -0.519540
 C        -4.666573         1.698594        -0.442036
 C        -5.517589         0.963712        -1.440793
 O        -5.273670         2.325298        -1.539073
 H         1.970101        -0.427637         1.040810
 H         1.825982        -0.799121        -0.690426
 H         1.997796         0.761588         0.048928
 H        -2.936774        -0.743541        -0.632050
 H        -2.701251        -0.740306         1.850011
 H        -2.633517         2.337114         0.123015
 H        -2.750549         1.561840        -1.533676
 H        -5.051714         1.959655         0.548711
 H        -4.980597         0.242350        -2.115976
 H        -6.578792         0.753272        -1.461772
