19
Iteration:  3409charge 0 multiplicity 1
 C         1.431008        -0.047480         0.384413
 C         0.028869         0.010910        -0.084661
 C        -1.192365        -0.097378        -0.284731
 C        -2.566224         0.056711        -0.022502
 O        -3.102114        -0.048899         1.362816
 C        -3.004926         1.448883        -0.599056
 C        -4.528174         1.679463        -0.449738
 C        -5.550868         1.038968        -1.317358
 O        -5.149638         2.359179        -1.504127
 H         1.422775        -0.522029         1.459350
 H         2.078968        -0.707561        -0.197792
 H         1.973925         0.931194         0.309307
 H        -3.056816        -0.703285        -0.664846
 H        -3.941179        -0.504409         1.086351
 H        -2.562258         2.141090         0.009978
 H        -2.732137         1.552281        -1.622712
 H        -4.633000         2.029215         0.583002
 H        -5.342063         0.308742        -2.135211
 H        -6.576663         1.025207        -0.835246
