19
Iteration:  3935charge 0 multiplicity 1
 C         1.360403        -0.398606        -0.248738
 C        -0.161294        -0.286645        -0.222929
 C        -1.236086         0.183769         0.088876
 C        -2.600863         0.233329         0.579452
 O        -2.714133         0.350866         1.988641
 C        -3.433727         1.478661        -0.125477
 C        -4.814382         1.126959        -0.841791
 C        -4.794140         1.349811        -2.319961
 O        -5.473170         2.268383        -1.448491
 H         1.734645        -1.216084        -1.016630
 H         1.767240         0.612624        -0.446653
 H         1.659604        -0.695301         0.855107
 H        -2.976505        -0.724726         0.106246
 H        -1.803029         0.545129         2.305138
 H        -3.736443         2.051796         0.749739
 H        -2.788963         1.898141        -0.769713
 H        -5.475607         0.362170        -0.379765
 H        -3.898656         1.876333        -2.717411
 H        -5.329769         0.735763        -2.967874
