19
Iteration:  3518charge 0 multiplicity 1
 C         1.473459        -0.416427         0.597205
 C         0.127397         0.078834         0.128851
 C        -1.047892         0.122780        -0.041925
 C        -2.428473         0.284757        -0.288624
 O        -3.231691         0.014174         0.864562
 C        -3.027213         1.611026        -0.919379
 C        -4.425999         1.811903        -0.430640
 C        -5.643733         0.958085        -0.751569
 O        -5.342745         2.121668        -1.522242
 H         1.269931        -1.351415         1.253811
 H         1.879014        -0.704768        -0.325879
 H         2.038391         0.324417         1.194182
 H        -2.704387        -0.487333        -1.016199
 H        -3.391120        -0.974781         1.049014
 H        -2.528973         2.531673        -0.853624
 H        -3.015585         1.402222        -2.000850
 H        -4.566762         2.367024         0.495048
 H        -5.586172         0.020749        -1.384160
 H        -6.528970         0.891277        -0.177240
