19
Iteration:   551
 C         1.309477         0.018824        -0.581937
 C        -0.102440         0.043434        -0.187262
 C        -1.276199        -0.133339         0.185999
 C        -2.753757         0.061330         0.356322
 O        -3.353342        -0.058860         1.682125
 C        -3.164724         1.366168        -0.094268
 C        -4.519945         1.272809        -0.619683
 C        -4.712634         1.414879        -2.070886
 O        -5.165448         2.406594        -1.114272
 H         1.380854         0.395750        -1.647032
 H         1.896098         0.682371         0.119398
 H         1.691626        -1.049694        -0.604609
 H        -3.223988        -0.768706        -0.234258
 H        -2.881653        -0.835001         1.988885
 H        -2.893811         2.106070         0.788497
 H        -2.636030         1.700102        -1.038805
 H        -5.081597         0.759440         0.131184
 H        -3.845582         1.744636        -2.620025
 H        -5.471428         0.768765        -2.544417
