19
Iteration:  4941charge 0 multiplicity 1
 C         0.738288        -0.089743        -0.985685
 C        -0.641688         0.008613        -0.476810
 C        -1.700847         0.121762         0.091363
 C        -3.013623         0.192766         0.821662
 O        -2.762633         0.167557         2.244362
 C        -3.803289         1.475375         0.533942
 C        -4.541496         1.440945        -0.765281
 C        -4.250173         0.824391        -2.114151
 O        -4.121773         2.246916        -1.855136
 H         1.453902         0.624024        -0.601541
 H         1.174859        -1.065081        -0.866479
 H         0.833119         0.132343        -2.077502
 H        -3.360730        -0.834835         0.586092
 H        -1.813838         0.339974         2.350487
 H        -4.457027         1.490153         1.395158
 H        -3.231687         2.314476         0.709659
 H        -5.608000         1.611548        -0.540863
 H        -3.306450         0.206241        -2.342831
 H        -4.948760         0.459593        -2.829220
