19
Iteration:  4182
 C         0.790016         0.056374        -1.005007
 C        -0.445104        -0.089225        -0.238151
 C        -1.615961         0.070560         0.126407
 C        -2.876533         0.160546         0.802803
 O        -2.838833         0.354098         2.270390
 C        -3.470628         1.470754         0.270196
 C        -4.664137         1.251651        -0.755822
 C        -4.180182         0.891018        -2.070282
 O        -4.663426         2.187879        -1.859918
 H         0.486255         0.190852        -2.082790
 H         1.342247         0.971746        -0.571749
 H         1.432211        -0.862063        -0.887989
 H        -3.387500        -0.804205         0.623817
 H        -2.385107        -0.483898         2.621232
 H        -3.540328         2.118562         1.154003
 H        -2.747489         2.193560        -0.329030
 H        -5.569364         0.910366        -0.378471
 H        -3.113574         0.726324        -2.420204
 H        -4.915172         0.228818        -2.582246
