19
Iteration:  3227charge 0 multiplicity 1
 C         1.284769         0.045771        -0.533116
 C        -0.037811        -0.119002         0.114832
 C        -1.257483        -0.099840         0.221083
 C        -2.720298        -0.031523         0.494131
 O        -3.042142        -0.055115         1.856063
 C        -3.259177         1.421837        -0.099458
 C        -4.528387         1.236496        -0.802436
 C        -4.902200         1.493570        -2.319607
 O        -5.300929         2.447879        -1.312446
 H         1.985649         0.641281         0.057496
 H         1.923128        -0.895433        -0.678712
 H         1.290409         0.470112        -1.610767
 H        -3.191976        -0.713730        -0.253987
 H        -2.560058        -0.717158         2.396229
 H        -3.300167         2.191283         0.762881
 H        -2.444370         1.687028        -0.845518
 H        -5.379848         0.629740        -0.414730
 H        -4.101849         1.817862        -2.981748
 H        -5.688125         0.831406        -2.746033
