19
Iteration:  4473
 C         0.331822        -0.386817        -1.327339
 C        -0.694460        -0.072279        -0.428687
 C        -1.624179        -0.148433         0.303301
 C        -2.836809         0.199378         1.122830
 O        -2.770212         0.743891         2.473303
 C        -3.752043         1.407758         0.440047
 C        -3.822839         1.027626        -1.059552
 C        -3.746982         2.040604        -2.134231
 O        -4.964508         1.491643        -1.879829
 H         0.490690         0.349427        -2.048674
 H         1.235733        -0.611683        -0.737276
 H        -0.028627        -1.285866        -1.860350
 H        -3.590152        -0.591299         1.238437
 H        -1.876587         0.871464         2.977342
 H        -4.673677         1.134590         0.938329
 H        -3.432807         2.354839         0.721534
 H        -3.635795        -0.048587        -1.419681
 H        -3.613995         3.035263        -1.853997
 H        -3.360558         1.793778        -3.166589
