19
Iteration:  4920charge 0 multiplicity 1
 C         0.772690        -0.138547        -0.974127
 C        -0.479663        -0.065327        -0.412630
 C        -1.551955         0.091221         0.180519
 C        -2.925309         0.203969         0.875302
 O        -2.719292         0.164768         2.281706
 C        -3.818425         1.428009         0.411162
 C        -4.810421         1.481979        -0.853167
 C        -4.307268         0.909472        -2.064453
 O        -4.206644         2.329321        -1.910927
 H         1.352903         0.645670        -0.544493
 H         1.268195        -1.088363        -0.767958
 H         0.723140         0.060675        -2.059991
 H        -3.394492        -0.748206         0.444507
 H        -1.850928        -0.227971         2.164140
 H        -4.345095         1.478838         1.397045
 H        -3.281798         2.316155         0.372861
 H        -5.890682         1.616031        -0.709690
 H        -3.326285         0.294773        -2.138672
 H        -4.962337         0.421736        -2.767934
