19
Iteration:  4263charge 0 multiplicity 1
 C         0.609975        -0.076777        -1.013232
 C        -0.649054         0.045911        -0.493585
 C        -1.660994         0.124607         0.136674
 C        -2.946951         0.223352         0.883045
 O        -2.648173         0.407293         2.267109
 C        -3.813222         1.485327         0.403675
 C        -4.587472         1.055577        -0.840322
 C        -3.829709         0.931759        -2.063477
 O        -4.533052         2.139292        -1.769445
 H         0.677520         0.276943        -2.050849
 H         1.299182         0.506273        -0.484920
 H         0.969312        -1.077371        -1.051973
 H        -3.503442        -0.710411         0.661201
 H        -1.686454         0.321840         2.321929
 H        -4.493686         1.753265         1.256188
 H        -3.128233         2.253422         0.050227
 H        -5.648807         0.655247        -0.725105
 H        -2.744853         1.031566        -1.970282
 H        -4.290307         0.367352        -2.845327
