19
Iteration:  4916
 C         0.811158        -0.162387        -0.978488
 C        -0.472423        -0.076835        -0.378149
 C        -1.554055         0.097086         0.188469
 C        -2.955645         0.200631         0.864261
 O        -2.721036         0.167654         2.284109
 C        -3.824836         1.428241         0.392543
 C        -4.817400         1.483410        -0.839833
 C        -4.315155         0.895219        -2.077540
 O        -4.235433         2.356259        -1.912433
 H         1.511792         0.720851        -0.664036
 H         1.367555        -1.082180        -0.850665
 H         0.814189         0.069011        -2.074961
 H        -3.259183        -0.820560         0.554566
 H        -1.826832        -0.350428         2.136821
 H        -4.274600         1.547921         1.348008
 H        -3.241463         2.412290         0.457290
 H        -5.894047         1.640075        -0.681130
 H        -3.395464         0.337014        -2.126654
 H        -4.929245         0.363043        -2.826830
