19
Iteration:  4107charge 0 multiplicity 1
 C         0.985882        -0.148332        -0.877780
 C        -0.276474        -0.004194        -0.143809
 C        -1.444953         0.149511         0.274985
 C        -2.818480         0.206817         0.794518
 O        -2.820877         0.224887         2.300992
 C        -3.436741         1.478629         0.096497
 C        -4.610102         1.279117        -0.813083
 C        -4.503851         1.029562        -2.247811
 O        -4.976715         2.215060        -1.814653
 H         0.730695        -0.310475        -1.941480
 H         1.610730         0.741005        -0.768979
 H         1.450839        -0.961744        -0.424709
 H        -3.339468        -0.762719         0.437918
 H        -2.238081        -0.443055         2.646975
 H        -3.520186         2.293738         0.889187
 H        -2.544226         1.794778        -0.674112
 H        -5.431679         0.795635        -0.226411
 H        -3.505840         1.222179        -2.775078
 H        -5.186388         0.302161        -2.665379
