19
Iteration:   904charge 0 multiplicity 1
 C         1.259483         0.011683         0.587802
 C         0.025226         0.056265        -0.264451
 C        -1.156962        -0.171578        -0.388178
 C        -2.596608        -0.107221        -0.225291
 O        -3.046296        -0.172923         1.194981
 C        -3.071311         1.342654        -0.821480
 C        -4.450600         1.641172        -0.354848
 C        -5.573740         1.135567        -1.237319
 O        -5.127526         2.614116        -1.159095
 H         1.238445         0.837284         1.382443
 H         1.216919        -0.983518         1.091236
 H         2.225525         0.162225         0.015323
 H        -3.190889        -1.007389        -0.700905
 H        -2.256993        -0.281414         1.696369
 H        -2.490685         2.156630        -0.298915
 H        -2.666455         1.259376        -1.869623
 H        -4.520268         1.842452         0.665811
 H        -5.458510         0.600906        -2.140841
 H        -6.535795         1.049021        -0.727531
