19
Iteration:  4505charge 0 multiplicity 1
 C         0.417292        -0.464848        -1.317831
 C        -0.712290        -0.206735        -0.357883
 C        -1.501043         0.150011         0.483449
 C        -2.982801         0.172809         1.074107
 O        -2.684779         0.806113         2.455616
 C        -3.722501         1.254267         0.254645
 C        -3.815024         0.938457        -1.269398
 C        -3.857542         2.140794        -2.051980
 O        -5.029936         1.541764        -1.757981
 H         0.643012         0.451969        -1.904608
 H         1.345893        -0.782649        -0.775801
 H         0.059458        -1.361979        -1.917463
 H        -3.607039        -0.700572         1.285222
 H        -2.213574         0.153501         2.891795
 H        -4.755135         1.355806         0.668423
 H        -3.175571         2.112902         0.429802
 H        -3.508275        -0.126908        -1.558015
 H        -3.693840         3.062752        -1.645739
 H        -3.559585         2.043842        -3.131293
