19
Iteration:  4581charge 0 multiplicity 1
 C         0.662332        -0.608165        -1.014547
 C        -0.582031        -0.183986        -0.314548
 C        -1.572746         0.025879         0.270874
 C        -2.749359         0.277391         0.925801
 O        -2.648107         0.678331         2.328045
 C        -3.742477         1.326565         0.275665
 C        -4.038231         1.121275        -1.122375
 C        -3.964011         2.128739        -2.107027
 O        -5.246475         1.599278        -1.752916
 H         1.216830         0.311698        -1.457844
 H         1.357103        -1.092289        -0.235849
 H         0.482469        -1.408393        -1.836453
 H        -3.456307        -0.580721         0.847551
 H        -1.862603         0.251323         2.838206
 H        -4.730442         1.294787         0.919190
 H        -3.469096         2.385322         0.341177
 H        -3.877761         0.041899        -1.451006
 H        -3.875400         3.078642        -1.718988
 H        -3.627285         1.815129        -3.135620
