19
Iteration:  3117
 C         1.138338        -0.211192        -0.495460
 C        -0.260735         0.045344        -0.154086
 C        -1.423847         0.223233         0.068052
 C        -2.723241         0.093870         0.548995
 O        -2.530027        -0.127263         1.974208
 C        -3.754011         1.356879         0.349248
 C        -4.658538         1.178045        -0.950960
 C        -4.307329         1.630991        -2.321470
 O        -5.381304         2.252108        -1.530033
 H         1.773461         0.635959        -0.157913
 H         1.299945        -1.160424         0.083523
 H         1.161094        -0.260944        -1.624397
 H        -3.240204        -0.752293         0.091265
 H        -1.683759         0.405993         2.142579
 H        -4.328884         1.512365         1.199118
 H        -3.142085         2.274417         0.232065
 H        -5.210724         0.226312        -0.857104
 H        -3.350104         1.950471        -2.494208
 H        -4.821536         0.956025        -2.980644
