19
Iteration:  4281charge 0 multiplicity 1
 C         0.750058        -0.123751        -1.159994
 C        -0.642367         0.067775        -0.448976
 C        -1.703456        -0.005955         0.206049
 C        -2.933836         0.282413         0.882593
 O        -2.612118         0.479288         2.340626
 C        -3.920227         1.321621         0.462375
 C        -4.676011         1.120979        -0.882769
 C        -3.753203         0.996088        -2.073641
 O        -4.565764         2.173303        -1.843355
 H         0.737715         0.278011        -2.257142
 H         1.558942         0.389742        -0.526890
 H         0.955615        -1.219848        -1.209304
 H        -3.524078        -0.647276         0.949635
 H        -1.681475         0.476901         2.531297
 H        -4.658169         1.360074         1.258077
 H        -3.625001         2.412265         0.370588
 H        -5.547136         0.561686        -0.798204
 H        -2.754933         1.161241        -1.785834
 H        -4.045058         0.478736        -3.041488
