19
Iteration:  3809
 C         1.357444        -0.189376        -0.527049
 C        -0.061238        -0.145819         0.032790
 C        -1.193627         0.050994         0.480991
 C        -2.659098         0.115627         0.426688
 O        -3.149466         0.308656         1.827276
 C        -3.149629         1.361593        -0.290224
 C        -4.573882         1.171168        -0.787989
 C        -5.185144         1.191300        -2.173007
 O        -5.103893         2.404649        -1.386537
 H         1.446186        -1.096375        -1.060859
 H         1.473262         0.710853        -1.183164
 H         1.921213        -0.150792         0.373465
 H        -3.227422        -0.764147        -0.026602
 H        -2.371399         0.305196         2.501569
 H        -3.144183         2.088368         0.479333
 H        -2.492916         1.669948        -1.151312
 H        -5.295716         0.741263        -0.117714
 H        -4.499760         1.308275        -3.063974
 H        -6.169177         0.710696        -2.466589
