19
Iteration:  2540
 C         1.414071         0.037779        -0.377952
 C        -0.049822        -0.084277        -0.171654
 C        -1.199872         0.074943         0.171276
 C        -2.748352         0.016978         0.325010
 O        -3.099742        -0.263457         1.639078
 C        -3.330406         1.391908        -0.003138
 C        -4.700593         1.278196        -0.662388
 C        -4.836807         1.388931        -2.088977
 O        -5.217352         2.505225        -1.276661
 H         1.662037        -0.584274        -1.248172
 H         1.772127         1.055642        -0.746169
 H         1.979961        -0.341977         0.498023
 H        -3.145284        -0.842330        -0.185636
 H        -2.786848         0.494420         2.191972
 H        -3.311521         2.010625         0.883995
 H        -2.669968         1.803252        -0.746374
 H        -5.425704         0.596924        -0.251005
 H        -3.889951         1.466916        -2.676616
 H        -5.692676         0.807375        -2.549850
