19
Iteration:  4602
 C         0.776561        -0.631914        -0.871369
 C        -0.603176        -0.192088        -0.347939
 C        -1.691802         0.198955         0.172379
 C        -2.928033         0.277858         0.895715
 O        -2.506303         0.602968         2.324558
 C        -3.738484         1.380110         0.343945
 C        -4.057085         0.995674        -1.200282
 C        -3.995486         2.096648        -2.149416
 O        -5.216239         1.640257        -1.653780
 H         1.373332         0.274508        -1.255200
 H         1.317225        -1.151514        -0.064005
 H         0.512295        -1.388486        -1.659577
 H        -3.521010        -0.691189         0.832604
 H        -1.687248         0.201044         2.403485
 H        -4.827194         1.594000         0.730518
 H        -3.158622         2.305018         0.239896
 H        -3.948812         0.038212        -1.738473
 H        -3.702401         3.030957        -1.762457
 H        -3.940172         1.983240        -3.290916
