19
Iteration:  3574charge 0 multiplicity 1
 C         1.476282        -0.323737         0.462378
 C         0.022067        -0.128479         0.240249
 C        -1.127320         0.060127        -0.010817
 C        -2.521906         0.300378        -0.301606
 O        -3.123334        -0.229928         1.017646
 C        -2.955537         1.718117        -0.888218
 C        -4.419205         1.931564        -0.574781
 C        -5.572444         0.984787        -0.814281
 O        -5.450111         2.134346        -1.588163
 H         1.779343        -1.296075         0.974954
 H         2.095035        -0.262804        -0.370554
 H         1.874988         0.480408         1.111034
 H        -2.964645        -0.440067        -0.970489
 H        -3.079371         0.535629         1.584338
 H        -2.516954         2.478924        -0.356952
 H        -2.701168         1.616570        -1.934055
 H        -4.450824         2.497868         0.395934
 H        -5.289362         0.035381        -1.317514
 H        -6.400666         0.952841        -0.109408
