19
Iteration:  1193
 C         1.260602        -0.166257        -0.236215
 C        -0.190693        -0.128703        -0.310937
 C        -1.375799         0.001186        -0.078337
 C        -2.727638         0.118312         0.425245
 O        -2.694795        -0.210208         1.852336
 C        -3.411459         1.483994         0.088147
 C        -4.737760         1.512471        -0.662323
 C        -4.942679         1.207294        -2.065670
 O        -5.087909         2.524246        -1.574415
 H         1.733262        -1.103354         0.166461
 H         1.631959         0.160105        -1.261221
 H         1.569009         0.685829         0.446953
 H        -3.504342        -0.607646         0.020909
 H        -1.764259        -0.276811         2.161758
 H        -3.377838         1.870663         1.136938
 H        -2.746169         2.178456        -0.471073
 H        -5.669516         1.348588        -0.074539
 H        -4.066743         1.179855        -2.639429
 H        -5.768542         0.791296        -2.590839
