19
Iteration:  2674charge 0 multiplicity 1
 C         1.137794        -0.177002        -0.616005
 C        -0.310813         0.117400        -0.194541
 C        -1.483413         0.145041         0.009917
 C        -2.836851         0.007954         0.557871
 O        -2.555937         0.077430         2.018713
 C        -3.791751         1.212315         0.283344
 C        -4.499827         1.064961        -1.036117
 C        -4.165152         1.918331        -2.196430
 O        -5.377719         2.115114        -1.379238
 H         1.158079        -0.337876        -1.731295
 H         1.827731         0.695842        -0.467223
 H         1.434281        -1.188792        -0.315826
 H        -3.292784        -0.972889         0.385602
 H        -2.433709        -0.867821         2.345291
 H        -4.348345         1.125951         1.220143
 H        -3.092227         2.116103         0.427874
 H        -4.957531         0.062273        -1.213918
 H        -3.430106         2.758273        -2.119309
 H        -4.522682         1.657874        -3.181578
