19
Iteration:  1592charge 0 multiplicity 1
 C        -0.019771        -0.032861        -1.562004
 C        -0.753893         0.018125        -0.393143
 C        -1.603297         0.145738         0.404483
 C        -2.952472         0.119630         1.132090
 O        -2.713216         0.273775         2.527541
 C        -3.935063         1.088902         0.478092
 C        -3.934799         0.906935        -1.195674
 C        -3.232476         1.930075        -1.993351
 O        -4.731677         1.849961        -1.795137
 H        -0.574771         0.485497        -2.421788
 H         0.989756         0.501448        -1.468320
 H         0.281995        -1.036188        -1.943014
 H        -3.251067        -0.971263         1.030291
 H        -2.633442         1.218609         2.621413
 H        -4.861032         0.748323         0.833367
 H        -3.664567         2.137694         0.738109
 H        -3.984662        -0.098398        -1.635313
 H        -2.809205         2.822673        -1.553389
 H        -3.167950         1.672777        -3.070924
