19
Iteration:  2678charge 0 multiplicity 1
 C         1.142105        -0.166383        -0.642288
 C        -0.324274         0.129310        -0.207786
 C        -1.507752         0.109498        -0.017757
 C        -2.852553         0.007098         0.625066
 O        -2.531153         0.066267         2.057177
 C        -3.806672         1.209890         0.268525
 C        -4.473860         1.083176        -1.070458
 C        -4.136653         1.904323        -2.203635
 O        -5.385450         2.118360        -1.375343
 H         1.189938        -0.228873        -1.748334
 H         1.824420         0.637688        -0.456414
 H         1.329303        -1.154708        -0.163254
 H        -3.375417        -0.913337         0.337744
 H        -2.286151        -0.817027         2.301326
 H        -4.491806         1.072314         1.203368
 H        -3.147005         2.185651         0.405467
 H        -4.922732         0.072554        -1.263691
 H        -3.476080         2.736615        -2.046149
 H        -4.457526         1.727766        -3.220941
