19
Iteration:   905charge 0 multiplicity 1
 C         1.259840         0.010509         0.586727
 C         0.015751         0.056657        -0.259311
 C        -1.159297        -0.170574        -0.387420
 C        -2.597843        -0.095502        -0.223617
 O        -3.038845        -0.178709         1.192955
 C        -3.075864         1.339169        -0.822787
 C        -4.437964         1.641659        -0.351773
 C        -5.579597         1.132540        -1.237783
 O        -5.123280         2.618368        -1.165792
 H         1.221477         0.834981         1.370219
 H         1.216664        -0.981690         1.076016
 H         2.228478         0.166036         0.037537
 H        -3.204917        -0.975129        -0.673695
 H        -2.238857        -0.287117         1.693946
 H        -2.479754         2.135402        -0.302333
 H        -2.680678         1.279276        -1.897772
 H        -4.562934         1.803007         0.697862
 H        -5.465091         0.603158        -2.119168
 H        -6.534122         1.011534        -0.723753
