19
Iteration:  3173
 C         1.285004        -0.101008        -0.354779
 C        -0.226153        -0.010098        -0.405932
 C        -1.378877         0.059630         0.095292
 C        -2.788977         0.114671         0.470039
 O        -2.802626         0.018052         1.919662
 C        -3.441659         1.340221         0.060347
 C        -4.566643         1.144879        -0.853914
 C        -4.524019         1.551227        -2.241558
 O        -5.310558         2.278296        -1.255457
 H         1.637503         0.678241         0.342854
 H         1.792513        -1.128250        -0.010657
 H         1.601141         0.046530        -1.458206
 H        -3.321672        -0.718685        -0.019879
 H        -3.751528        -0.049447         2.238988
 H        -3.857722         1.736118         0.990222
 H        -2.665454         2.024426        -0.335766
 H        -5.277717         0.271984        -0.610327
 H        -3.576622         1.828066        -2.710481
 H        -5.066389         0.970067        -3.010251
