19
Iteration:  2737
 C         0.843661         0.108818        -0.851487
 C        -0.593239        -0.092068        -0.501454
 C        -1.669431        -0.064973        -0.017442
 C        -2.879079        -0.037908         0.756974
 O        -2.562839         0.137248         2.170697
 C        -3.878880         1.106567         0.426420
 C        -4.214686         1.012255        -1.004218
 C        -3.820646         2.035370        -1.998317
 O        -5.170297         2.005958        -1.544983
 H         0.934525         0.232174        -1.931616
 H         1.207652         0.954660        -0.234208
 H         1.574753        -0.695215        -0.615430
 H        -3.433138        -1.026811         0.600889
 H        -2.579384         1.098843         2.445357
 H        -4.710795         1.113352         1.091959
 H        -3.425268         2.031783         0.480779
 H        -4.315724         0.056259        -1.454160
 H        -3.255778         2.990852        -1.779017
 H        -3.711639         1.708905        -3.065400
