19
Iteration:  1816charge 0 multiplicity 1
 C         0.871546        -0.226952        -0.735697
 C        -0.490600         0.092159        -0.431802
 C        -1.662224         0.193506        -0.097734
 C        -2.825124         0.139251         0.863952
 O        -2.335473         0.144329         2.141935
 C        -3.997712         1.215429         0.460750
 C        -4.619015         1.116513        -0.908505
 C        -3.923165         1.522955        -2.164456
 O        -5.034509         2.221075        -1.743389
 H         1.650502         0.510776        -0.423228
 H         1.114923        -1.051240        -0.002131
 H         1.234129        -0.582414        -1.740835
 H        -3.367366        -0.906424         0.676472
 H        -2.269990         1.016887         2.595453
 H        -4.782053         1.083858         1.180644
 H        -3.714542         2.178605         0.697640
 H        -5.283551         0.250901        -1.074855
 H        -2.969433         1.909600        -2.023464
 H        -3.920372         0.708326        -2.838264
