19
Iteration:  3576charge 0 multiplicity 1
 C         1.483491        -0.320536         0.472422
 C         0.025173        -0.137220         0.232984
 C        -1.131906         0.044446        -0.021833
 C        -2.528266         0.305089        -0.288780
 O        -3.125697        -0.227209         1.024079
 C        -2.974600         1.722637        -0.887595
 C        -4.424095         1.916218        -0.578332
 C        -5.565591         0.990571        -0.815059
 O        -5.438431         2.130423        -1.587910
 H         1.808681        -1.283799         0.949917
 H         2.155014        -0.244385        -0.419064
 H         1.929382         0.505743         1.117583
 H        -2.952819        -0.411954        -0.989513
 H        -3.138311         0.517936         1.608159
 H        -2.542212         2.535937        -0.396724
 H        -2.642780         1.679562        -1.937816
 H        -4.454352         2.502101         0.392217
 H        -5.312791         0.080854        -1.348574
 H        -6.440015         0.992592        -0.085551
