19
Iteration:  1651
 C         0.144113         0.003772        -1.613008
 C        -0.877824         0.117824        -0.563303
 C        -1.627717         0.075463         0.369309
 C        -2.987297         0.122336         1.059820
 O        -2.892920         0.279315         2.488947
 C        -3.734558         1.316362         0.530352
 C        -3.823126         0.973019        -0.935455
 C        -3.365486         1.862720        -1.945916
 O        -4.777883         1.663305        -1.850603
 H         0.153784         0.794040        -2.384938
 H         1.041694         0.183765        -0.965399
 H         0.164709        -1.047316        -2.014140
 H        -3.509082        -0.789781         0.753695
 H        -2.186116        -0.343172         2.854331
 H        -4.692298         1.512877         1.039354
 H        -3.198834         2.211754         0.754137
 H        -3.872258        -0.096550        -1.207660
 H        -3.068408         2.917023        -1.756367
 H        -2.827268         1.498779        -2.822546
