19
Iteration:  4734
 C         1.003538        -0.476011        -0.661458
 C        -0.300917        -0.147817        -0.249371
 C        -1.471307        -0.119615         0.190232
 C        -2.692591         0.135046         0.775921
 O        -2.745825         0.520052         2.221282
 C        -3.596626         1.301836         0.198400
 C        -4.553658         1.087169        -1.107782
 C        -4.319299         1.658725        -2.390813
 O        -5.208365         2.322407        -1.489856
 H         1.804843         0.256894        -0.758493
 H         1.585524        -1.203380        -0.089537
 H         1.032277        -1.013741        -1.629210
 H        -3.200074        -0.862445         0.720253
 H        -1.905062         0.308893         2.545545
 H        -4.429454         1.527464         1.011423
 H        -2.984525         2.179748        -0.015843
 H        -5.270574         0.275813        -1.219021
 H        -3.358756         2.087887        -2.742536
 H        -4.833789         1.300159        -3.301904
