19
Iteration:   366
 C         1.640174        -0.067808         0.034611
 C         0.134633        -0.300022        -0.126641
 C        -1.073017        -0.045472        -0.079414
 C        -2.550971         0.111596        -0.095313
 O        -3.301762        -0.219031         1.352611
 C        -3.096529         1.590993        -0.274224
 C        -4.702439         1.683061        -0.393272
 C        -5.328083         1.089425        -1.575462
 O        -5.305458         2.548301        -1.307966
 H         2.238131        -0.425611        -0.812273
 H         1.825986         0.998832         0.241151
 H         2.009613        -0.666959         0.858328
 H        -3.034454        -0.557819        -0.926144
 H        -3.850478        -0.973982         1.148222
 H        -2.815735         2.365252         0.450420
 H        -2.791970         2.026907        -1.220557
 H        -5.172565         1.495452         0.697721
 H        -4.685840         0.633264        -2.315931
 H        -6.291903         0.690940        -1.458928
