19
Iteration:  1284charge 0 multiplicity 1
 C         1.047585        -0.192939        -0.872650
 C        -0.221679         0.038464        -0.185839
 C        -1.369268         0.014836         0.285604
 C        -2.767407         0.106373         0.634076
 O        -2.964277        -0.030318         2.113611
 C        -3.324319         1.500336         0.156333
 C        -4.534207         1.195443        -0.849414
 C        -4.424623         1.439417        -2.275941
 O        -5.243815         2.381479        -1.455430
 H         1.133380        -1.242930        -1.142734
 H         1.193606         0.438479        -1.735759
 H         1.878021        -0.038927        -0.192630
 H        -3.142933        -0.806490         0.070832
 H        -2.745772        -0.917133         2.381913
 H        -3.782792         2.044943         0.988897
 H        -2.437003         2.056083        -0.084964
 H        -5.152235         0.409660        -0.410461
 H        -3.624273         1.973428        -2.764714
 H        -4.864319         0.843171        -3.060029
