19
Iteration:  4682
 C         0.929072        -0.517103        -0.642060
 C        -0.426288        -0.350028        -0.201666
 C        -1.498728        -0.007305         0.062384
 C        -2.759234         0.268215         0.759359
 O        -2.557342         0.593912         2.164356
 C        -3.638859         1.344460         0.206864
 C        -4.438707         1.020692        -1.104414
 C        -4.181765         1.890124        -2.227290
 O        -5.328163         2.032543        -1.564072
 H         1.390353         0.444794        -0.786740
 H         1.573268        -1.115953         0.136392
 H         1.076578        -1.021772        -1.632008
 H        -3.347516        -0.696557         0.722461
 H        -1.985014        -0.084410         2.433760
 H        -4.481246         1.577554         0.858072
 H        -3.193604         2.316169         0.135131
 H        -5.018327         0.074087        -1.209391
 H        -3.435545         2.690714        -2.020978
 H        -4.232021         1.602299        -3.202711
