19
Iteration:  1815
 C         0.870808        -0.223457        -0.735680
 C        -0.492886         0.084696        -0.438273
 C        -1.653971         0.189956        -0.095425
 C        -2.826212         0.138787         0.867770
 O        -2.334233         0.148091         2.147747
 C        -4.001721         1.207182         0.468538
 C        -4.618249         1.121099        -0.917050
 C        -3.914344         1.518215        -2.168654
 O        -5.041614         2.224127        -1.739573
 H         1.651655         0.536431        -0.454634
 H         1.114390        -1.058512        -0.010503
 H         1.244581        -0.578388        -1.744406
 H        -3.406543        -0.888647         0.695794
 H        -2.281921         1.011589         2.571609
 H        -4.799041         1.083370         1.164267
 H        -3.714847         2.197929         0.702909
 H        -5.276213         0.280615        -1.101967
 H        -2.977208         1.906657        -2.011808
 H        -3.885340         0.714904        -2.853675
