19
Iteration:  2501charge 0 multiplicity 1
 C         1.474537         0.113942        -0.269785
 C        -0.031912         0.032915        -0.085644
 C        -1.241726        -0.143901         0.153624
 C        -2.693863         0.056888         0.319159
 O        -3.170165        -0.426210         1.580329
 C        -3.203500         1.459431        -0.186227
 C        -4.648301         1.430242        -0.554590
 C        -5.232936         1.232609        -1.968785
 O        -5.044992         2.582375        -1.382256
 H         1.858114        -0.611845        -1.031763
 H         1.686380         1.124774        -0.617667
 H         2.127147         0.151888         0.617016
 H        -3.206330        -0.554594        -0.526056
 H        -2.496397        -0.149358         2.205296
 H        -2.879102         2.362593         0.405624
 H        -2.580864         1.507944        -1.166607
 H        -5.314544         1.125146         0.305288
 H        -4.584284         1.064550        -2.800549
 H        -6.235547         0.878800        -2.180513
