19
Iteration:  4095
 C         0.962425        -0.186918        -0.800286
 C        -0.267241         0.012396        -0.090092
 C        -1.409736         0.082856         0.260166
 C        -2.758018         0.273321         0.760235
 O        -2.833756         0.242490         2.180260
 C        -3.429825         1.547482         0.101394
 C        -4.627982         1.173837        -0.759802
 C        -4.483728         0.989814        -2.282040
 O        -5.027199         2.257959        -1.717294
 H         0.769216        -0.423592        -1.851282
 H         1.638008         0.713338        -0.824233
 H         1.624228        -1.014420        -0.569764
 H        -3.406193        -0.642274         0.415566
 H        -2.144609        -0.419977         2.325061
 H        -3.757842         2.397994         0.761269
 H        -2.587824         2.089073        -0.647849
 H        -5.549067         0.812323        -0.352880
 H        -3.428462         0.956230        -2.800794
 H        -5.205020         0.414038        -2.849964
