19
Iteration:  4673
 C         1.035126        -0.537711        -0.670218
 C        -0.409185        -0.363377        -0.247518
 C        -1.584597         0.014329         0.071691
 C        -2.836733         0.236473         0.781786
 O        -2.523552         0.589597         2.194914
 C        -3.694600         1.404197         0.209363
 C        -4.415732         1.032522        -1.067932
 C        -4.078242         1.929757        -2.236689
 O        -5.428676         1.999770        -1.597486
 H         1.446546         0.454144        -0.793101
 H         1.556336        -1.138965         0.162247
 H         0.967626        -1.106601        -1.604388
 H        -3.379454        -0.708684         0.862148
 H        -1.901356        -0.063296         2.379905
 H        -4.370040         1.563133         1.014437
 H        -3.072115         2.329634         0.051872
 H        -4.714452        -0.038634        -1.256129
 H        -3.398960         2.771693        -1.945023
 H        -4.092101         1.513230        -3.241376
