19
Iteration:   742charge 0 multiplicity 1
 C         1.412141        -0.162193        -0.031930
 C         0.005313        -0.057084         0.140325
 C        -1.155654        -0.009189        -0.139624
 C        -2.627089         0.114221        -0.065780
 O        -3.078295        -0.331027         1.255501
 C        -3.202819         1.643217        -0.223258
 C        -4.655523         1.560276        -0.411119
 C        -5.227404         1.127428        -1.699482
 O        -5.247200         2.575498        -1.236940
 H         1.859510         0.661142        -0.584099
 H         1.978131        -0.156369         0.875417
 H         1.751040        -1.032487        -0.565310
 H        -3.025373        -0.545148        -0.854511
 H        -2.509212        -1.118618         1.516273
 H        -2.907628         2.247525         0.613581
 H        -2.740441         2.091360        -1.148414
 H        -5.044066         1.268729         0.521895
 H        -4.505061         0.910874        -2.451316
 H        -6.240269         0.759454        -1.787002
