19
Iteration:    37charge 0 multiplicity 1
 C         1.456535        -0.176630         0.103934
 C         0.104613         0.289349         0.017215
 C        -1.109928         0.159476        -0.058683
 C        -2.532046        -0.046131        -0.124567
 O        -3.180651        -0.631240         0.958658
 C        -3.138121         1.310553        -0.413319
 C        -4.649145         1.517542        -0.300109
 C        -5.590396         1.442171        -1.523888
 O        -5.018537         2.704426        -1.023094
 H         1.462241        -1.086883         0.720656
 H         1.847789        -0.350977        -0.890625
 H         2.127821         0.504411         0.641561
 H        -2.712113        -0.707029        -1.022729
 H        -3.552621        -1.481324         0.738769
 H        -2.674674         2.035329         0.250142
 H        -2.781442         1.630903        -1.340805
 H        -5.165254         1.478096         0.635544
 H        -5.252444         1.189346        -2.467281
 H        -6.598768         1.261095        -1.377661
