19
Iteration:  3606
 C         1.557167        -0.248841         0.428005
 C         0.097993        -0.188293         0.084569
 C        -1.057084         0.036082        -0.150529
 C        -2.514462         0.169250        -0.229099
 O        -3.302216        -0.047655         1.069059
 C        -3.016755         1.540678        -0.634645
 C        -4.530983         1.905667        -0.459571
 C        -5.606293         1.030358        -0.894719
 O        -5.290972         2.137811        -1.668787
 H         1.888155        -1.202063         0.941387
 H         2.237903        -0.016626        -0.303050
 H         1.663588         0.526791         1.184312
 H        -2.867207        -0.574576        -0.981405
 H        -2.989608         0.761515         1.612720
 H        -2.399822         2.382625        -0.287108
 H        -2.649328         1.682855        -1.659509
 H        -4.734979         2.567857         0.411784
 H        -5.191156         0.098616        -1.302422
 H        -6.627188         0.972659        -0.516177
