19
Iteration:   306
 C         1.467601        -0.306142         0.087441
 C         0.037952         0.124246         0.189830
 C        -1.142929         0.252399         0.015375
 C        -2.560776         0.154132        -0.172944
 O        -3.230862        -0.533507         0.941044
 C        -3.059765         1.509595        -0.521293
 C        -4.464428         1.724591        -0.370117
 C        -5.413701         1.128337        -1.319024
 O        -5.329480         2.534772        -1.217610
 H         1.587809        -1.048966        -0.719900
 H         2.115975         0.540526        -0.180986
 H         1.870939        -0.686865         1.057198
 H        -2.848917        -0.451162        -1.010821
 H        -2.817845        -0.384502         1.788966
 H        -2.370997         2.240476        -0.060727
 H        -2.844219         1.405141        -1.640300
 H        -4.824327         1.730823         0.598732
 H        -4.897704         0.513355        -2.107594
 H        -6.379687         0.673462        -0.956510
