19
Iteration:   818
 C         1.610537        -0.157312         0.096178
 C         0.145765        -0.022033         0.286766
 C        -1.051832         0.104591         0.127514
 C        -2.502561         0.025848        -0.212646
 O        -3.242411        -0.286108         1.088268
 C        -3.048550         1.344262        -0.737859
 C        -4.675190         1.587357        -0.415492
 C        -5.692415         1.239056        -1.409110
 O        -5.259661         2.635348        -1.181716
 H         2.087267         0.835234         0.004649
 H         2.184393        -0.676662         0.855890
 H         1.887777        -0.741201        -0.791501
 H        -2.600819        -0.815853        -0.945977
 H        -2.783836        -1.082370         1.393121
 H        -2.532446         2.051597        -0.090515
 H        -2.648745         1.582685        -1.777343
 H        -4.836614         1.544882         0.628956
 H        -5.513159         0.899081        -2.374807
 H        -6.645883         0.956973        -0.968685
