19
Iteration:  4347charge 0 multiplicity 1
 C         0.562439        -0.265349        -1.284508
 C        -0.688753        -0.008951        -0.453610
 C        -1.673720         0.118679         0.295216
 C        -2.944537         0.279844         1.140029
 O        -2.616561         0.656401         2.439525
 C        -3.965651         1.155295         0.350483
 C        -4.397870         0.800701        -1.073198
 C        -3.592825         1.373357        -2.186705
 O        -4.716379         2.096903        -1.665076
 H         0.526543         0.355471        -2.278564
 H         1.487692         0.008060        -0.673849
 H         0.644616        -1.330098        -1.563243
 H        -3.455512        -0.677784         1.067987
 H        -1.741305         1.084279         2.194460
 H        -4.757342         1.418991         1.034279
 H        -3.517235         2.173824         0.320873
 H        -5.077609         0.146592        -1.461234
 H        -2.640141         1.779205        -1.902131
 H        -3.714548         1.144226        -3.289041
