19
Iteration:  3716
 C         1.520675        -0.019671        -0.102833
 C         0.042842        -0.227424        -0.058746
 C        -1.209088        -0.137518         0.061356
 C        -2.649547         0.193934         0.246984
 O        -3.277981         0.121191         1.601429
 C        -3.098188         1.456405        -0.381759
 C        -4.594176         1.565148        -0.543965
 C        -5.525579         1.020241        -1.555054
 O        -4.902709         2.339105        -1.703810
 H         2.026050        -1.005782        -0.273116
 H         1.714359         0.574862        -0.922005
 H         1.854048         0.497133         0.821919
 H        -3.140185        -0.532398        -0.456827
 H        -2.823270        -0.618719         1.957715
 H        -3.039101         2.422130         0.343718
 H        -2.560771         1.324277        -1.328484
 H        -5.127676         1.986765         0.385508
 H        -5.241604         0.469550        -2.408048
 H        -6.604653         0.898841        -1.218208
