19
Iteration:   843
 C         1.491378        -0.016532         0.216961
 C         0.029393        -0.208413         0.366373
 C        -1.076956        -0.019858        -0.098315
 C        -2.521586         0.032583        -0.241538
 O        -3.083003        -0.220659         1.072496
 C        -3.024802         1.380467        -0.809620
 C        -4.592613         1.564638        -0.405003
 C        -5.674266         1.280463        -1.342713
 O        -5.265880         2.578064        -1.146186
 H         1.716016         1.008970         0.396036
 H         2.139567        -0.564616         0.884995
 H         1.884898        -0.332438        -0.732048
 H        -2.754106        -0.708245        -1.053518
 H        -2.616154        -0.938283         1.463508
 H        -2.456886         2.199671        -0.432812
 H        -2.874576         1.353097        -1.877478
 H        -4.731052         1.720183         0.756821
 H        -5.622164         0.812551        -2.381930
 H        -6.669791         1.165833        -0.817071
