19
Iteration:  3497charge 0 multiplicity 1
 C         1.534917        -0.367188         0.597370
 C         0.154767        -0.073144         0.103189
 C        -1.054636         0.185740        -0.026021
 C        -2.450158         0.168886        -0.397911
 O        -3.152579         0.037430         0.955040
 C        -2.977919         1.567137        -0.879316
 C        -4.497118         1.797193        -0.497880
 C        -5.654445         0.934631        -0.781634
 O        -5.451324         2.238132        -1.527004
 H         1.447856        -1.128891         1.512508
 H         2.276489        -0.776059        -0.093285
 H         1.937579         0.561957         1.132619
 H        -2.748379        -0.720060        -0.956084
 H        -3.831727        -0.625736         0.765284
 H        -2.495850         2.284326        -0.313795
 H        -2.756953         1.745014        -1.927978
 H        -4.648315         2.393100         0.426750
 H        -5.679473         0.003474        -1.440867
 H        -6.500136         0.896596        -0.132959
