19
Iteration:  1123
 C         1.474838        -0.171603        -0.175880
 C        -0.045359        -0.055264        -0.214202
 C        -1.287729        -0.012086         0.004236
 C        -2.751945         0.163939         0.212359
 O        -3.122671        -0.224459         1.548691
 C        -3.212025         1.552684        -0.158297
 C        -4.718135         1.503474        -0.445097
 C        -5.114868         1.063425        -1.765649
 O        -5.038956         2.520732        -1.489702
 H         1.864422        -0.892059         0.596274
 H         1.832521        -0.308836        -1.216523
 H         1.878105         0.825815         0.121642
 H        -3.168565        -0.529192        -0.477608
 H        -2.558330         0.220670         2.189629
 H        -3.038127         2.268290         0.637629
 H        -2.575437         1.855000        -1.019915
 H        -5.269945         1.550702         0.468318
 H        -4.424207         0.795720        -2.622764
 H        -6.091786         0.528957        -1.851356
