19
Iteration:   481charge 0 multiplicity 1
 C         1.412081         0.014382        -0.382702
 C        -0.021390        -0.183369        -0.178107
 C        -1.186554        -0.047181         0.115980
 C        -2.568727         0.085345         0.414390
 O        -2.962699        -0.402213         1.791161
 C        -3.293792         1.424381        -0.083701
 C        -4.803375         1.436278        -0.634052
 C        -5.153683         1.361719        -2.068843
 O        -5.098977         2.614949        -1.395821
 H         1.610478         0.266516        -1.444807
 H         1.587670         0.910912         0.218069
 H         2.099243        -0.824394        -0.165217
 H        -2.934778        -0.579955        -0.424803
 H        -3.900182        -0.277679         1.790867
 H        -3.358927         2.147230         0.740512
 H        -2.611368         1.893313        -0.812079
 H        -5.639640         1.263185         0.036111
 H        -4.349376         1.426404        -2.849966
 H        -6.115110         0.855643        -2.331339
