19
Iteration:  3385charge 0 multiplicity 1
 C         1.463961         0.043369         0.232781
 C         0.017572        -0.058835        -0.117251
 C        -1.173049        -0.130626         0.046584
 C        -2.671097        -0.009710         0.011710
 O        -3.058570        -0.080856         1.375519
 C        -3.080902         1.435142        -0.546752
 C        -4.615000         1.664033        -0.472493
 C        -5.473138         1.079456        -1.442809
 O        -5.106730         2.479375        -1.540362
 H         1.618784        -0.318496         1.328516
 H         2.015105        -0.734143        -0.413476
 H         1.962914         0.978082        -0.054520
 H        -3.204167        -0.713806        -0.673152
 H        -3.397248        -1.033139         1.452974
 H        -2.543292         2.250176        -0.047922
 H        -2.875448         1.388757        -1.606026
 H        -4.861706         1.853804         0.550108
 H        -5.145023         0.352820        -2.188612
 H        -6.535469         0.927052        -0.999821
