19
Iteration:  2923charge 0 multiplicity 1
 C         0.034456         0.470290        -1.531860
 C        -0.987056         0.195059        -0.554231
 C        -1.745900        -0.002503         0.384225
 C        -2.966135        -0.126500         1.099376
 O        -2.708756         0.145713         2.481844
 C        -3.876020         0.909094         0.445708
 C        -3.956665         0.921982        -1.055076
 C        -3.158733         1.793115        -1.984474
 O        -4.551892         1.979404        -1.768681
 H        -0.265004         1.315235        -2.077938
 H         0.922173         0.519448        -0.900643
 H         0.217258        -0.391274        -2.144917
 H        -3.251943        -1.151305         0.921973
 H        -3.352558         0.787265         2.918625
 H        -5.000784         0.727309         0.804699
 H        -3.627604         1.893908         0.925370
 H        -4.029790        -0.078480        -1.455110
 H        -2.621596         2.771934        -1.798287
 H        -2.917117         1.255961        -2.961613
