19
Iteration:  1818
 C         0.878238        -0.236864        -0.733479
 C        -0.487866         0.108978        -0.419000
 C        -1.679918         0.201245        -0.101213
 C        -2.826925         0.138966         0.846511
 O        -2.338420         0.136694         2.133451
 C        -3.989259         1.228153         0.445462
 C        -4.619786         1.103794        -0.891368
 C        -3.940614         1.528348        -2.152232
 O        -5.021422         2.216310        -1.750498
 H         1.629340         0.465508        -0.362182
 H         1.114311        -1.033462        -0.003595
 H         1.183922        -0.583808        -1.721344
 H        -3.252784        -0.896993         0.650088
 H        -2.249034         1.014450         2.618929
 H        -4.765272         1.069013         1.234643
 H        -3.673459         2.214001         0.688895
 H        -5.294397         0.195971        -1.007280
 H        -2.909504         1.952127        -2.045480
 H        -4.015454         0.683478        -2.855081
