19
Iteration:  1685
 C         0.269491         0.082902        -1.514572
 C        -0.674521        -0.127710        -0.458729
 C        -1.596638        -0.000385         0.291240
 C        -2.954329         0.120403         1.078274
 O        -2.815735         0.375931         2.526182
 C        -3.768957         1.230483         0.446958
 C        -3.892714         0.905219        -1.039763
 C        -3.520318         1.867357        -2.081262
 O        -4.871817         1.872637        -1.736904
 H         0.186312         1.062795        -1.962897
 H         1.234279         0.017858        -0.972461
 H         0.342117        -0.705994        -2.292398
 H        -3.636629        -0.655723         0.989799
 H        -2.935116        -0.501303         3.007657
 H        -4.845603         1.196700         0.773821
 H        -3.295263         2.159342         0.530955
 H        -4.114721        -0.154195        -1.256862
 H        -3.004658         2.790422        -1.780531
 H        -3.254625         1.460811        -3.041675
