19
Iteration:  2938
 C         0.170922         0.467072        -1.444359
 C        -0.966051         0.126467        -0.626000
 C        -1.679215        -0.122823         0.352784
 C        -2.960637        -0.111083         1.047133
 O        -2.755226         0.211541         2.423411
 C        -3.875569         1.025326         0.465102
 C        -3.896367         0.905183        -1.035618
 C        -3.246456         1.761973        -1.958227
 O        -4.674901         1.970328        -1.718000
 H         0.083347         1.516720        -1.924579
 H         1.187930         0.660197        -0.960635
 H         0.424324        -0.222804        -2.308310
 H        -3.618615        -1.004929         1.032987
 H        -3.630854         0.504952         2.748800
 H        -4.866867         0.883697         0.870972
 H        -3.455699         1.969245         0.723478
 H        -4.364003        -0.046406        -1.377582
 H        -2.508888         2.365171        -1.441964
 H        -2.902579         1.415273        -2.973960
