19
Iteration:  1598charge 0 multiplicity 1
 C         0.025231        -0.027231        -1.582866
 C        -0.782792         0.050703        -0.424615
 C        -1.647757         0.168061         0.456116
 C        -2.970034         0.096542         1.180887
 O        -2.694312         0.225829         2.533328
 C        -3.906972         1.122984         0.435499
 C        -3.889172         0.953262        -1.141000
 C        -3.296484         1.920278        -2.017361
 O        -4.716380         1.823843        -1.842351
 H        -0.594650         0.430764        -2.292880
 H         0.974274         0.397608        -1.592048
 H         0.142535        -1.052274        -1.916925
 H        -3.372082        -0.896543         0.999606
 H        -2.416301         1.166404         2.812360
 H        -4.975902         0.777327         0.814926
 H        -3.757398         2.150047         0.755514
 H        -3.931974        -0.061949        -1.566172
 H        -2.737547         2.783056        -1.619943
 H        -3.117302         1.674788        -3.037367
