19
Iteration:   702charge 0 multiplicity 1
 C         1.397663        -0.097552        -0.063642
 C        -0.013020        -0.260811        -0.210636
 C        -1.222314         0.021075        -0.100822
 C        -2.633613         0.072421         0.079822
 O        -2.948350        -0.290324         1.441662
 C        -3.214305         1.624214        -0.050690
 C        -4.699287         1.547414        -0.477664
 C        -5.031234         1.260165        -1.806295
 O        -5.362313         2.558408        -1.335344
 H         1.657166         0.751422        -0.693813
 H         1.577923         0.116184         0.999610
 H         1.922699        -1.051281        -0.185613
 H        -3.282446        -0.513177        -0.641432
 H        -2.696161        -1.165900         1.674186
 H        -3.223823         2.048945         0.951121
 H        -2.455543         2.158898        -0.604425
 H        -5.428657         1.207037         0.248823
 H        -4.254999         1.248944        -2.597719
 H        -5.851125         0.503413        -2.035241
