19
Iteration:  3981charge 0 multiplicity 1
 C         1.261820        -0.447271        -0.322181
 C        -0.127205        -0.024126        -0.018431
 C        -1.323692         0.098832        -0.194889
 C        -2.711983         0.305539         0.545532
 O        -2.696203         0.393278         1.968026
 C        -3.476559         1.534544         0.060679
 C        -4.585499         1.148007        -0.831036
 C        -4.729102         1.223829        -2.325726
 O        -5.395625         2.200454        -1.444915
 H         1.131730        -1.124692        -1.197068
 H         1.898650         0.423060        -0.481706
 H         1.569845        -1.037311         0.647660
 H        -3.294403        -0.602273         0.226492
 H        -2.190257        -0.312856         2.329059
 H        -3.904805         1.941835         1.026507
 H        -2.810732         2.147823        -0.524895
 H        -5.265432         0.436425        -0.392026
 H        -3.880012         1.590803        -2.862482
 H        -5.473022         0.575929        -2.836734
