19
Iteration:  1268
 C         1.065859        -0.205923        -0.730072
 C        -0.202787         0.064475        -0.115438
 C        -1.385532         0.037158         0.129585
 C        -2.739488         0.035078         0.625316
 O        -2.871609         0.005867         2.020938
 C        -3.371115         1.396070         0.127942
 C        -4.601737         1.293535        -0.747415
 C        -4.481420         1.477062        -2.235315
 O        -5.195334         2.354580        -1.480780
 H         1.044022        -1.308754        -0.977322
 H         1.105897         0.397904        -1.715727
 H         1.981164         0.134432        -0.142769
 H        -3.424028        -0.593732         0.119808
 H        -2.839493        -0.958087         2.139523
 H        -3.515640         1.994348         1.052922
 H        -2.740295         1.913132        -0.636117
 H        -5.403349         0.599178        -0.415343
 H        -3.407286         1.620324        -2.539840
 H        -5.128467         0.867468        -2.896985
