19
Iteration:  3919
 C         1.319763        -0.391763        -0.258983
 C        -0.093120        -0.205660        -0.115287
 C        -1.258440         0.094834        -0.026301
 C        -2.655891         0.283874         0.518149
 O        -2.757271         0.304323         2.062687
 C        -3.409719         1.452730        -0.089248
 C        -4.634514         1.115454        -0.896528
 C        -4.887729         1.355955        -2.371433
 O        -5.437691         2.263633        -1.403607
 H         1.636813        -1.124502        -0.940970
 H         1.861641         0.511488        -0.624119
 H         1.858359        -0.667219         0.581544
 H        -3.331629        -0.571950         0.505632
 H        -1.979351         0.719321         2.385835
 H        -3.696576         2.209090         0.662415
 H        -2.712456         2.115703        -0.802827
 H        -5.270514         0.388028        -0.361281
 H        -4.000018         1.639573        -2.944553
 H        -5.812418         0.824291        -2.855072
