19
Iteration:  3675charge 0 multiplicity 1
 C         1.394421        -0.106514         0.086226
 C        -0.011989        -0.047724         0.143532
 C        -1.237992        -0.064865        -0.007930
 C        -2.724292         0.087614         0.029329
 O        -3.062596        -0.065955         1.454053
 C        -3.098932         1.440340        -0.504081
 C        -4.505213         1.887451        -0.581991
 C        -5.380716         0.949077        -1.244913
 O        -5.161003         2.352546        -1.791919
 H         1.837278        -1.089755         0.109879
 H         1.844432         0.364441        -0.802870
 H         1.908804         0.445530         0.921924
 H        -3.240813        -0.774280        -0.428218
 H        -2.553829        -0.844325         1.796697
 H        -2.408253         2.067887         0.020139
 H        -2.878132         1.568528        -1.599450
 H        -4.745629         2.620915         0.241439
 H        -4.989467         0.080435        -1.801711
 H        -6.420591         0.828102        -0.846642
