19
Iteration:   214
 C         1.450572        -0.117536         0.512759
 C         0.099368        -0.209001         0.065862
 C        -1.041399        -0.088575        -0.296906
 C        -2.513899         0.100263        -0.410161
 O        -3.063971        -0.367804         0.760810
 C        -3.063453         1.626130        -0.515474
 C        -4.551633         1.793997        -0.218807
 C        -5.663235         1.200406        -1.062425
 O        -5.291431         2.511989        -1.277619
 H         2.033531        -1.043880         0.399439
 H         1.992868         0.618668        -0.135017
 H         1.467560         0.298433         1.521653
 H        -2.895198        -0.563051        -1.222718
 H        -2.894339        -1.341060         0.771889
 H        -2.522401         2.141244         0.290259
 H        -2.979892         1.984619        -1.593322
 H        -4.957467         2.049068         0.882619
 H        -5.519832         0.386741        -1.805981
 H        -6.627698         1.086962        -0.500358
