19
Iteration:  4713
 C         1.047741        -0.517799        -0.683823
 C        -0.307927        -0.262859        -0.206577
 C        -1.435454        -0.001953         0.129951
 C        -2.928956         0.163231         0.786236
 O        -2.678126         0.613369         2.138235
 C        -3.710060         1.273518         0.161536
 C        -4.408219         1.073285        -1.086673
 C        -4.297729         1.750605        -2.387006
 O        -5.184085         2.201740        -1.399598
 H         1.681501         0.347172        -0.740520
 H         1.750511        -1.131052        -0.065458
 H         1.154305        -1.038394        -1.654082
 H        -3.520419        -0.791848         0.658145
 H        -1.863010         0.103516         2.582087
 H        -4.664614         1.369284         0.842110
 H        -3.005372         2.062913         0.261280
 H        -5.069386         0.187094        -1.067317
 H        -3.516461         2.459676        -2.690055
 H        -4.658946         1.261995        -3.225667
