19
Iteration:   642charge 0 multiplicity 1
 C         1.310661        -0.199726        -0.374872
 C        -0.011959         0.190071        -0.014798
 C        -1.249969         0.102842         0.073042
 C        -2.698602        -0.091950         0.214171
 O        -2.984539        -0.216217         1.647995
 C        -3.301049         1.337462        -0.038122
 C        -4.732213         1.380353        -0.605886
 C        -4.971557         1.364503        -2.074802
 O        -5.134839         2.598044        -1.245677
 H         1.714535         0.253169        -1.308095
 H         2.029979         0.152380         0.380414
 H         1.374342        -1.247635        -0.708685
 H        -3.203825        -0.900246        -0.421184
 H        -2.545160        -0.978253         2.046366
 H        -3.211820         1.970546         0.908232
 H        -2.723264         1.920556        -0.836822
 H        -5.691113         0.954824        -0.077038
 H        -4.098528         1.358515        -2.749838
 H        -5.873528         1.008616        -2.536340
