19
Iteration:   103charge 0 multiplicity 1
 C         1.583752         0.043042         0.310179
 C         0.107129        -0.331818         0.121517
 C        -1.064204        -0.053688        -0.090039
 C        -2.515127         0.062097        -0.298855
 O        -3.266684        -0.607119         0.752335
 C        -3.073307         1.524337        -0.572168
 C        -4.508480         1.711365        -0.369848
 C        -5.683143         1.316866        -1.157087
 O        -5.258662         2.663837        -1.156048
 H         2.213216        -0.777509         0.693334
 H         2.000302         0.412770        -0.627168
 H         1.627928         0.849225         1.049419
 H        -2.818018        -0.543576        -1.175115
 H        -2.773752        -0.459929         1.639364
 H        -2.482186         1.990486         0.235123
 H        -2.643345         1.989881        -1.443217
 H        -4.777535         1.957163         0.694988
 H        -5.581878         0.928338        -2.113931
 H        -6.522663         1.058257        -0.576763
