19
Iteration:  1536charge 0 multiplicity 1
 C         0.371324        -0.026793        -1.513366
 C        -0.809303        -0.020514        -0.630189
 C        -1.586752        -0.027369         0.291374
 C        -2.891327         0.079508         1.093440
 O        -2.835779         0.620895         2.417465
 C        -3.995030         0.788382         0.376296
 C        -4.129660         0.834769        -1.110216
 C        -3.344532         1.833502        -1.803848
 O        -4.688464         2.101312        -1.615971
 H        -0.032796         0.101431        -2.571731
 H         1.071706         0.829440        -1.348204
 H         0.797927        -1.044011        -1.480911
 H        -3.226205        -0.960352         1.401247
 H        -2.330814         1.490281         2.374025
 H        -4.957973         0.398458         0.606190
 H        -4.085646         1.758968         0.878839
 H        -4.515244        -0.041168        -1.628576
 H        -2.600285         2.502607        -1.416105
 H        -3.090048         1.466481        -2.791002
