19
Iteration:  3162charge 0 multiplicity 1
 C         1.220662        -0.123203        -0.391356
 C        -0.215683         0.014801        -0.319538
 C        -1.374142         0.086923        -0.059244
 C        -2.722025         0.069117         0.501216
 O        -2.774825        -0.027282         1.969755
 C        -3.510361         1.409556         0.105255
 C        -4.598766         1.105031        -0.864961
 C        -4.473411         1.521214        -2.282873
 O        -5.277698         2.279733        -1.276151
 H         1.666508         0.664760         0.251663
 H         1.360572        -1.174737         0.099345
 H         1.786084         0.029019        -1.396106
 H        -3.234116        -0.823280         0.112468
 H        -3.704496         0.311828         2.196724
 H        -4.018272         1.829202         0.966477
 H        -2.938588         2.279135        -0.263919
 H        -5.181028         0.186696        -0.511105
 H        -3.716207         2.236679        -2.486285
 H        -5.083203         1.008182        -3.054270
