19
Iteration:  3610charge 0 multiplicity 1
 C         1.557481        -0.245689         0.436128
 C         0.114629        -0.180319         0.053064
 C        -1.091185         0.057349        -0.125616
 C        -2.533070         0.129915        -0.234045
 O        -3.294376        -0.023378         1.081926
 C        -3.013877         1.518379        -0.644078
 C        -4.520871         1.889777        -0.434467
 C        -5.586850         1.060780        -0.928469
 O        -5.280320         2.124992        -1.657456
 H         1.797827        -1.203513         0.912819
 H         2.208396         0.022495        -0.494703
 H         1.623603         0.545714         1.252655
 H        -2.825184        -0.615479        -0.963555
 H        -2.922865         0.653195         1.618224
 H        -2.429018         2.252344        -0.124928
 H        -2.669688         1.800292        -1.655316
 H        -4.817156         2.677946         0.332487
 H        -5.208314         0.105351        -1.284876
 H        -6.681147         0.954688        -0.620263
