19
Iteration:   700
 C         1.399604        -0.098262        -0.058031
 C        -0.028426        -0.261653        -0.247638
 C        -1.220856         0.043200        -0.096069
 C        -2.635486         0.078434         0.100159
 O        -2.960394        -0.290533         1.452589
 C        -3.205326         1.605323        -0.052833
 C        -4.711257         1.546161        -0.493729
 C        -5.023795         1.262671        -1.821875
 O        -5.344285         2.546022        -1.322012
 H         1.725213         0.710999        -0.668730
 H         1.588685         0.121776         0.956042
 H         1.929652        -1.002686        -0.170709
 H        -3.304837        -0.553852        -0.538883
 H        -2.685020        -1.193205         1.681609
 H        -3.234016         1.977729         0.894474
 H        -2.540659         2.245825        -0.597396
 H        -5.401937         1.258294         0.233087
 H        -4.242769         1.305072        -2.574110
 H        -5.851873         0.527831        -2.007248
