19
Iteration:   387charge 0 multiplicity 1
 C         1.438524        -0.091096         0.000824
 C         0.016280        -0.105135        -0.177329
 C        -1.192337        -0.007748        -0.029623
 C        -2.677957         0.079059         0.117408
 O        -3.062189        -0.314179         1.365644
 C        -3.092292         1.557284        -0.307033
 C        -4.589401         1.632749        -0.415921
 C        -5.231791         1.150417        -1.626935
 O        -5.282151         2.539608        -1.365373
 H         1.999197        -0.383462        -0.889958
 H         1.734050         0.920758         0.326681
 H         1.752244        -0.834635         0.720224
 H        -3.156771        -0.644602        -0.598915
 H        -3.806629        -0.932218         1.253809
 H        -2.620295         2.241819         0.434526
 H        -2.724176         1.848179        -1.261269
 H        -5.076344         1.627094         0.617602
 H        -4.547631         1.014262        -2.439510
 H        -6.092355         0.545218        -1.644127
