19
Iteration:  1076
 C         1.509776        -0.142280        -0.285255
 C         0.104053        -0.154406         0.161086
 C        -1.116946         0.075453         0.297500
 C        -2.640332         0.108412         0.095431
 O        -3.350081        -0.277579         1.294771
 C        -3.028869         1.524631        -0.357250
 C        -4.512130         1.657866        -0.548724
 C        -5.366174         1.078548        -1.605189
 O        -5.248879         2.516776        -1.413799
 H         2.049547        -0.568580         0.516352
 H         1.614189        -0.674429        -1.198371
 H         1.911315         0.840492        -0.399454
 H        -2.890095        -0.521954        -0.684308
 H        -2.822479         0.023450         2.094550
 H        -2.819820         2.320072         0.326212
 H        -2.628375         1.819811        -1.284175
 H        -4.899492         1.492016         0.508821
 H        -4.968808         0.606495        -2.510587
 H        -6.359894         0.648501        -1.294327
