19
Iteration:  4606
 C         0.792300        -0.626395        -0.853985
 C        -0.634987        -0.178468        -0.326415
 C        -1.666030         0.205839         0.126477
 C        -2.946565         0.245939         0.909270
 O        -2.492189         0.594733         2.324544
 C        -3.783035         1.378360         0.300372
 C        -4.065718         1.015429        -1.192591
 C        -4.000986         2.100004        -2.188591
 O        -5.204283         1.648529        -1.625069
 H         1.409449         0.140367        -1.254527
 H         1.369058        -1.196373        -0.015233
 H         0.681831        -1.382286        -1.690077
 H        -3.575751        -0.636928         0.852353
 H        -1.542069         0.163202         2.439379
 H        -4.682400         1.698512         0.769477
 H        -3.205855         2.289094         0.256348
 H        -3.951296        -0.024903        -1.625413
 H        -3.746527         3.087950        -1.751209
 H        -3.948338         1.872276        -3.184560
