19
Iteration:  4998
 C         0.501344         0.128322        -1.196061
 C        -0.859243         0.089706        -0.485776
 C        -1.844563         0.000855         0.181270
 C        -3.141846         0.210637         0.898197
 O        -2.612223         0.014752         2.291161
 C        -3.911312         1.532855         0.504476
 C        -4.514125         1.509284        -0.816689
 C        -3.986717         0.707255        -1.924750
 O        -3.779183         2.158197        -1.943147
 H         1.132286         0.668628        -0.586312
 H         0.836702        -0.934150        -1.222724
 H         0.407641         0.500292        -2.177574
 H        -3.590854        -0.729396         0.686565
 H        -2.092997         0.930560         2.439495
 H        -4.625744         1.709959         1.329814
 H        -3.161837         2.211292         0.497609
 H        -5.602258         1.684457        -0.806577
 H        -3.118205         0.175015        -1.751320
 H        -4.796926         0.455091        -2.634699
