19
Iteration:   788
 C         1.571297        -0.236663         0.076094
 C         0.175569         0.150193        -0.082496
 C        -1.014738         0.098258         0.170265
 C        -2.482754         0.156190         0.009677
 O        -3.394125        -0.377213         1.086908
 C        -3.081000         1.392789        -0.565382
 C        -4.707283         1.498808        -0.382957
 C        -5.534826         1.210364        -1.498560
 O        -5.191093         2.626330        -1.213755
 H         2.278698         0.546207        -0.106095
 H         1.753436        -0.565292         1.087672
 H         1.892536        -1.024450        -0.586390
 H        -2.497885        -0.491534        -0.877820
 H        -2.822245        -0.944184         1.629914
 H        -2.675397         2.231374        -0.066154
 H        -2.721102         1.466938        -1.580798
 H        -5.176096         1.420974         0.652279
 H        -5.275744         0.913616        -2.524565
 H        -6.512820         0.824382        -1.060336
