19
Iteration:  3551charge 0 multiplicity 1
 C         1.429656        -0.395153         0.528059
 C         0.037819        -0.009277         0.270021
 C        -1.107970         0.284276        -0.084797
 C        -2.485189         0.150903        -0.284168
 O        -3.206230        -0.118071         0.885811
 C        -3.030850         1.541441        -0.863921
 C        -4.453439         1.957691        -0.521348
 C        -5.445636         0.977495        -0.750069
 O        -5.455479         2.148631        -1.567069
 H         1.590580        -1.437424         0.946551
 H         1.931594        -0.513413        -0.370356
 H         2.160415         0.242299         1.015818
 H        -2.664478        -0.674973        -0.996434
 H        -2.525441        -0.043530         1.611036
 H        -2.501758         2.330284        -0.432363
 H        -2.858158         1.450720        -1.914470
 H        -4.477905         2.644167         0.333082
 H        -5.137438         0.164333        -1.458296
 H        -6.275844         0.855499        -0.124514
