19
Iteration:  1948charge 0 multiplicity 1
 C         1.020013         0.112957        -0.823886
 C        -0.288677        -0.010638        -0.112654
 C        -1.419675        -0.023586         0.238973
 C        -2.809480         0.081330         0.707964
 O        -2.953762         0.140246         2.050802
 C        -3.335093         1.415334         0.041855
 C        -4.519971         1.109568        -0.792952
 C        -4.484515         1.236077        -2.234851
 O        -5.027306         2.294940        -1.473081
 H         1.742600         0.666295        -0.171382
 H         1.286539        -0.981890        -0.944553
 H         0.974569         0.657092        -1.823656
 H        -3.292305        -0.727357         0.163218
 H        -2.581269        -0.679715         2.439447
 H        -3.610679         2.176240         0.768693
 H        -2.624660         1.822709        -0.616093
 H        -5.346533         0.475296        -0.424086
 H        -3.550241         1.367644        -2.783038
 H        -5.244663         0.805672        -2.857316
