19
Iteration:   927
 C         1.237127         0.010543         0.542148
 C        -0.070481        -0.028841        -0.023532
 C        -1.234301        -0.143065        -0.387520
 C        -2.632652        -0.044902        -0.262154
 O        -2.863279        -0.255762         1.155673
 C        -3.056651         1.402277        -0.750718
 C        -4.449595         1.623485        -0.337656
 C        -5.583495         1.231966        -1.231405
 O        -5.150750         2.547321        -1.241412
 H         1.338952         0.750154         1.398174
 H         1.547752        -0.982131         0.943414
 H         1.923524         0.371850        -0.263912
 H        -3.204947        -0.842372        -0.892123
 H        -1.931988        -0.145140         1.496750
 H        -2.410841         2.300951        -0.620561
 H        -2.934471         1.060105        -1.835475
 H        -4.624928         1.936726         0.648387
 H        -5.432912         0.676404        -2.104836
 H        -6.557792         1.181155        -0.739759
