19
Iteration:  4016
 C         1.175341        -0.392816        -0.425901
 C        -0.234488        -0.066710        -0.286961
 C        -1.367770         0.175457         0.195542
 C        -2.695170         0.328767         0.647618
 O        -2.634339         0.293072         2.021785
 C        -3.474941         1.605135         0.060478
 C        -4.643315         1.164294        -0.845123
 C        -4.666024         1.157943        -2.287203
 O        -5.332308         2.184202        -1.563250
 H         1.532505        -0.964528        -1.257128
 H         1.878876         0.481989        -0.378520
 H         1.527042        -1.062664         0.453120
 H        -3.287864        -0.496933         0.189462
 H        -2.740516        -0.638104         2.070398
 H        -3.726085         2.413161         0.832117
 H        -2.675680         2.221189        -0.583551
 H        -5.137839         0.355807        -0.390551
 H        -3.717380         1.483081        -2.694171
 H        -5.306780         0.512862        -3.003209
