19
Iteration:  2250charge 0 multiplicity 1
 C         1.380697        -0.383511         0.697681
 C         0.088667         0.030764         0.336507
 C        -0.979089         0.204945        -0.349391
 C        -2.422023         0.251801        -0.435720
 O        -3.049256        -0.062594         0.869345
 C        -3.002965         1.585031        -1.046975
 C        -4.409491         1.699566        -0.518540
 C        -5.684005         0.960457        -0.718562
 O        -5.550296         2.213554        -1.333182
 H         1.387002        -1.193762         1.498630
 H         1.995633        -0.452451        -0.232220
 H         1.950857         0.325755         1.363964
 H        -2.765191        -0.428026        -1.175900
 H        -2.345714        -0.682554         1.256053
 H        -2.582987         2.545720        -0.727055
 H        -3.011351         1.540439        -2.132067
 H        -4.428043         2.280190         0.410293
 H        -5.871123         0.022793        -1.292337
 H        -6.400634         1.035277         0.107217
