19
Iteration:  1047charge 0 multiplicity 1
 C         1.384161        -0.202465        -0.200634
 C         0.059435         0.129629         0.351845
 C        -1.163716         0.019756         0.237808
 C        -2.571806         0.142278        -0.009868
 O        -3.305875        -0.300863         1.134488
 C        -3.006683         1.457328        -0.558539
 C        -4.479451         1.574940        -0.417913
 C        -5.407005         1.120211        -1.471525
 O        -5.178508         2.504773        -1.336965
 H         2.036045        -0.523038         0.710175
 H         1.255604        -1.066548        -0.933747
 H         1.896182         0.707462        -0.664751
 H        -2.859152        -0.540852        -0.942334
 H        -2.889457         0.076608         1.917896
 H        -2.597482         2.412449        -0.169592
 H        -2.810711         1.470860        -1.688833
 H        -4.685217         1.547398         0.614791
 H        -4.931001         0.580115        -2.327026
 H        -6.445416         0.767944        -1.185573
