19
Iteration:  2921charge 0 multiplicity 1
 C         0.007619         0.472031        -1.535311
 C        -0.974964         0.200636        -0.553541
 C        -1.759299         0.010837         0.391358
 C        -2.950026        -0.131653         1.095731
 O        -2.707175         0.138251         2.500330
 C        -3.904060         0.905685         0.454475
 C        -3.949298         0.914998        -1.073383
 C        -3.139264         1.795408        -1.985051
 O        -4.547304         1.981502        -1.777610
 H        -0.242732         1.319669        -2.119963
 H         0.943846         0.516218        -1.008364
 H         0.223100        -0.427092        -2.097712
 H        -3.298229        -1.174851         0.946713
 H        -3.306874         0.792708         2.943737
 H        -4.970087         0.706305         0.856487
 H        -3.622747         1.902908         0.944127
 H        -4.034480        -0.081405        -1.484336
 H        -2.608868         2.759987        -1.857808
 H        -2.950069         1.332447        -2.930536
