19
Iteration:  2708
 C         0.986780        -0.040065        -0.687191
 C        -0.519822         0.018981        -0.471743
 C        -1.615620         0.014152        -0.015187
 C        -2.829837         0.003730         0.733443
 O        -2.515241         0.045244         2.213402
 C        -3.830351         1.123874         0.373536
 C        -4.332461         1.055286        -1.077417
 C        -4.035417         2.008006        -2.179691
 O        -5.278081         2.083152        -1.499409
 H         1.168045         0.099842        -1.782672
 H         1.523398         0.785986        -0.141928
 H         1.387958        -0.882014        -0.125753
 H        -3.385334        -0.890409         0.450522
 H        -1.542806         0.219546         2.343288
 H        -4.657817         0.968828         1.131081
 H        -3.405850         2.233154         0.504803
 H        -4.662137         0.022975        -1.424602
 H        -3.430904         2.918223        -1.988168
 H        -4.177875         1.842662        -3.223288
