19
Iteration:  4410charge 0 multiplicity 1
 C         0.335820        -0.246996        -1.302806
 C        -0.740203        -0.235958        -0.387146
 C        -1.731798         0.053734         0.278747
 C        -2.910385         0.340776         1.187222
 O        -2.521333         0.509456         2.521088
 C        -3.872690         1.383269         0.380890
 C        -4.038627         0.914730        -1.093933
 C        -3.513557         1.795405        -2.162861
 O        -4.974879         1.719597        -1.849498
 H         0.282547         0.552117        -1.994567
 H         1.346264        -0.138918        -0.812430
 H         0.401514        -1.192816        -1.858007
 H        -3.527362        -0.590756         1.191730
 H        -2.195916         1.483799         2.612729
 H        -4.889909         1.424005         0.756966
 H        -3.559578         2.477675         0.203531
 H        -4.011950        -0.201270        -1.166016
 H        -3.039347         2.755979        -2.034948
 H        -3.193892         1.284211        -3.156189
