19
Iteration:  1607charge 0 multiplicity 1
 C         0.062407        -0.035830        -1.635148
 C        -0.854584         0.101153        -0.388623
 C        -1.678416         0.167127         0.459771
 C        -2.935042         0.104051         1.171924
 O        -2.704090         0.171457         2.589094
 C        -3.907713         1.129661         0.406532
 C        -3.827606         0.966824        -1.032183
 C        -3.345114         1.928039        -2.078819
 O        -4.729685         1.820775        -1.896684
 H        -0.501735         0.478767        -2.451638
 H         1.078014         0.392264        -1.607246
 H         0.047198        -1.126056        -1.874346
 H        -3.441834        -0.822625         1.083807
 H        -2.149507         0.982496         2.810022
 H        -4.987049         0.985044         0.659612
 H        -3.732094         2.175295         0.698753
 H        -3.867274        -0.104097        -1.299839
 H        -2.809125         2.845734        -1.654088
 H        -2.840988         1.563454        -2.992521
