19
Iteration:   499
 C         1.337229         0.058370        -0.461974
 C        -0.053839        -0.145684        -0.078903
 C        -1.238720        -0.041693         0.175497
 C        -2.734037        -0.037281         0.350969
 O        -2.959346        -0.288891         1.730871
 C        -3.214803         1.457678        -0.065893
 C        -4.566932         1.418224        -0.649443
 C        -5.032959         1.349805        -2.091604
 O        -5.199087         2.599382        -1.326284
 H         1.462030         0.209229        -1.530605
 H         1.790050         0.879425         0.115825
 H         1.856677        -0.897343        -0.402442
 H        -3.277748        -0.809665        -0.257094
 H        -3.860947        -0.546775         1.859347
 H        -3.198052         2.072672         0.829664
 H        -2.530117         2.048524        -0.708521
 H        -5.325943         0.765903         0.002802
 H        -4.304835         1.235713        -2.898006
 H        -6.014467         0.954734        -2.348966
