19
Iteration:  1170charge 0 multiplicity 1
 C         1.260695        -0.160103        -0.202858
 C        -0.182587         0.062195        -0.088937
 C        -1.418727        -0.108674        -0.165599
 C        -2.817133         0.088243         0.358213
 O        -2.671579        -0.268853         1.706416
 C        -3.378424         1.596356        -0.018792
 C        -4.726412         1.499245        -0.597231
 C        -4.937882         1.188994        -1.920110
 O        -5.066992         2.527894        -1.574566
 H         1.439494        -1.184350         0.269996
 H         1.507920        -0.101052        -1.336932
 H         1.934639         0.567096         0.371391
 H        -3.557341        -0.680482        -0.059167
 H        -1.837228         0.038329         2.047428
 H        -3.100635         2.176832         0.888920
 H        -2.583796         1.878073        -0.766714
 H        -5.558686         1.182773         0.055993
 H        -4.117852         0.772953        -2.473837
 H        -5.895982         0.805860        -2.222663
