19
Iteration:  2749charge 0 multiplicity 1
 C         0.789550         0.153005        -0.969274
 C        -0.563805        -0.084320        -0.443673
 C        -1.691856        -0.152541        -0.076653
 C        -2.929095         0.049774         0.832358
 O        -2.569323         0.143033         2.239003
 C        -3.856018         1.121150         0.431459
 C        -4.247047         0.971353        -1.071661
 C        -3.739439         2.050784        -1.983506
 O        -5.098886         1.968443        -1.568133
 H         0.847827         0.485290        -2.024159
 H         1.242891         1.089626        -0.537926
 H         1.336482        -0.776097        -0.736059
 H        -3.551179        -0.915049         0.833039
 H        -2.980409         0.979129         2.415718
 H        -4.719239         0.830553         0.952726
 H        -3.517907         2.025580         0.767571
 H        -4.432690        -0.043031        -1.362079
 H        -3.181694         2.819570        -1.344002
 H        -3.486682         1.982620        -3.053023
