19
Iteration:  4990charge 0 multiplicity 1
 C         0.487894         0.086823        -1.154592
 C        -0.821608         0.126027        -0.498196
 C        -1.872230         0.007565         0.177398
 C        -3.119902         0.187035         0.856245
 O        -2.596847         0.031622         2.257315
 C        -3.859022         1.527897         0.505586
 C        -4.574990         1.533981        -0.839790
 C        -3.992821         0.725766        -1.922723
 O        -3.838203         2.154170        -1.915711
 H         1.257173         0.624801        -0.487570
 H         0.943251        -0.941108        -1.124930
 H         0.587648         0.411300        -2.196334
 H        -3.713414        -0.809632         0.883227
 H        -2.145784         0.828914         2.739217
 H        -4.503622         1.653346         1.454456
 H        -3.017836         2.386936         0.490762
 H        -5.652659         1.683176        -0.847933
 H        -3.158680         0.080846        -1.749452
 H        -4.560582         0.356514        -2.847640
