19
Iteration:  3927charge 0 multiplicity 1
 C         1.368060        -0.404130        -0.242481
 C        -0.110219        -0.263065        -0.182570
 C        -1.272677         0.161552         0.007091
 C        -2.636416         0.250041         0.570671
 O        -2.736059         0.327338         2.041873
 C        -3.414091         1.470295        -0.132233
 C        -4.714431         1.107011        -0.831305
 C        -4.889312         1.381926        -2.324702
 O        -5.440220         2.250218        -1.458551
 H         1.614913        -1.113283        -1.022328
 H         1.677864         0.558794        -0.563121
 H         1.774698        -0.663928         0.789715
 H        -3.057644        -0.726857         0.345477
 H        -1.936299         0.620499         2.469771
 H        -3.542478         2.111524         0.834905
 H        -2.830223         2.173675        -0.851363
 H        -5.398739         0.374127        -0.498756
 H        -4.003603         1.740632        -2.841881
 H        -5.452087         0.837630        -3.093768
