19
Iteration:  1300
 C         1.036549        -0.175126        -0.933796
 C        -0.250784        -0.060687        -0.299226
 C        -1.298387         0.019074         0.397828
 C        -2.764145         0.203259         0.720047
 O        -3.062174        -0.025831         2.100680
 C        -3.441670         1.493154         0.201695
 C        -4.376084         1.238177        -0.879707
 C        -4.401064         1.516007        -2.337840
 O        -5.185800         2.245798        -1.403157
 H         1.202922        -1.134535        -1.466273
 H         1.105955         0.544247        -1.792882
 H         1.896991        -0.089392        -0.221681
 H        -3.416283        -0.654832         0.266615
 H        -2.587115        -0.778477         2.479906
 H        -3.891155         1.890759         1.144210
 H        -2.816301         2.350183        -0.214155
 H        -5.058399         0.383124        -0.744252
 H        -3.470508         1.982976        -2.817771
 H        -5.049116         0.776640        -2.931827
