19
Iteration:  2419
 C         1.502349         0.237815         0.171003
 C         0.075409        -0.051953        -0.094692
 C        -1.136725        -0.152332         0.043019
 C        -2.626577         0.003817         0.018405
 O        -3.325397        -0.402197         1.173990
 C        -2.972649         1.364163        -0.571849
 C        -4.442759         1.722955        -0.427149
 C        -5.673628         1.203837        -1.303075
 O        -5.088943         2.421263        -1.493809
 H         2.145316        -0.621066         0.176659
 H         1.933731         0.996537        -0.472800
 H         1.466117         0.452808         1.229898
 H        -3.018508        -0.641328        -0.722794
 H        -2.960497         0.105673         1.960686
 H        -2.323422         2.101428         0.008683
 H        -2.627519         1.339164        -1.643696
 H        -4.627456         2.053034         0.591872
 H        -5.500616         0.431198        -2.125807
 H        -6.562875         1.116830        -0.670962
