19
Iteration:  3932
 C         1.382253        -0.410159        -0.238243
 C        -0.159115        -0.277321        -0.208057
 C        -1.243658         0.175210         0.050071
 C        -2.616242         0.234744         0.590741
 O        -2.724319         0.342878         2.010309
 C        -3.423141         1.485036        -0.129631
 C        -4.780629         1.118504        -0.831262
 C        -4.840742         1.369282        -2.311358
 O        -5.454152         2.258710        -1.459368
 H         1.650804        -1.162147        -1.015134
 H         1.703872         0.646665        -0.494618
 H         1.652683        -0.647490         0.759745
 H        -2.950235        -0.746903         0.134297
 H        -1.817749         0.586675         2.408852
 H        -3.636256         1.999161         0.764912
 H        -2.782465         2.040142        -0.850757
 H        -5.488155         0.321767        -0.431887
 H        -3.943851         1.857075        -2.772648
 H        -5.362226         0.735700        -3.108744
