19
Iteration:   148charge 0 multiplicity 1
 C         1.349426        -0.038260         0.442991
 C        -0.034174         0.151518        -0.031018
 C        -1.196842        -0.145466        -0.287068
 C        -2.681108        -0.004916        -0.421791
 O        -3.231182        -0.415486         0.835143
 C        -2.955812         1.539452        -0.600841
 C        -4.393972         1.761010        -0.222665
 C        -5.349968         1.064439        -1.077757
 O        -5.124742         2.539653        -1.086931
 H         1.528520        -1.121228         0.603441
 H         2.098756         0.357230        -0.275399
 H         1.511279         0.477017         1.400191
 H        -3.121848        -0.561830        -1.300133
 H        -4.159055        -0.757022         0.587322
 H        -2.271611         2.236153        -0.021159
 H        -2.854358         1.891536        -1.691632
 H        -4.547703         1.783081         0.947117
 H        -5.013592         0.536057        -1.974899
 H        -6.317936         0.831243        -0.620104
