19
Iteration:  3168charge 0 multiplicity 1
 C         1.283409        -0.127370        -0.375150
 C        -0.226963         0.003574        -0.374067
 C        -1.392162         0.077962         0.023245
 C        -2.740813         0.088625         0.473652
 O        -2.799317         0.001881         1.947616
 C        -3.472434         1.353533         0.077829
 C        -4.591157         1.128529        -0.862330
 C        -4.499040         1.528584        -2.268251
 O        -5.289962         2.280593        -1.258456
 H         1.603046         0.677259         0.298263
 H         1.492536        -1.042579         0.051893
 H         1.599231         0.080411        -1.354731
 H        -3.309533        -0.763654         0.014430
 H        -3.684841         0.117926         2.258154
 H        -4.000893         1.823321         1.002693
 H        -2.837655         2.180086        -0.322176
 H        -5.099533         0.272284        -0.466451
 H        -3.600159         2.126089        -2.575116
 H        -5.053401         0.957279        -2.998021
