19
Iteration:  1722charge 0 multiplicity 1
 C         0.431845         0.022411        -1.295679
 C        -0.629978        -0.014514        -0.365072
 C        -1.552340        -0.183474         0.413255
 C        -2.908380        -0.053764         1.046204
 O        -2.668041         0.504974         2.388632
 C        -3.777221         1.038083         0.333795
 C        -4.160816         0.951870        -1.111068
 C        -3.684877         1.854915        -2.212066
 O        -4.959831         2.141892        -1.697540
 H         0.611849         1.050067        -1.601733
 H         1.329523        -0.165482        -0.728806
 H         0.254844        -0.628954        -2.126009
 H        -3.360878        -1.043572         1.073016
 H        -2.332338        -0.256688         2.932222
 H        -4.684860         1.012311         1.029447
 H        -3.461511         2.105199         0.628100
 H        -4.450873        -0.018857        -1.548488
 H        -2.753020         2.448672        -1.905935
 H        -3.710652         1.359777        -3.237254
