19
Iteration:   479
 C         1.428336         0.011543        -0.373980
 C        -0.007544        -0.181504        -0.188073
 C        -1.179186        -0.041028         0.121510
 C        -2.582053         0.095989         0.408492
 O        -2.957864        -0.406952         1.787239
 C        -3.296236         1.405185        -0.072615
 C        -4.810692         1.439676        -0.617597
 C        -5.164129         1.350248        -2.072768
 O        -5.091312         2.631668        -1.403695
 H         1.678522         0.224328        -1.413618
 H         1.526673         0.906135         0.220308
 H         2.101253        -0.828524        -0.201309
 H        -3.000291        -0.565476        -0.452058
 H        -3.934246        -0.266081         1.837864
 H        -3.300462         2.182779         0.661399
 H        -2.657890         1.929524        -0.818347
 H        -5.768670         1.181888         0.073357
 H        -4.361878         1.362012        -2.851808
 H        -6.140320         0.900814        -2.373404
