19
Iteration:   297charge 0 multiplicity 1
 C         1.463883        -0.304001         0.127230
 C         0.113086         0.155450         0.182616
 C        -1.100233         0.274063        -0.019723
 C        -2.586798         0.098674        -0.145629
 O        -3.215113        -0.628543         0.933466
 C        -3.010925         1.536614        -0.570400
 C        -4.535826         1.761368        -0.305466
 C        -5.426519         1.096764        -1.273523
 O        -5.352074         2.581623        -1.252686
 H         1.452634        -1.160871        -0.575303
 H         2.224474         0.396533        -0.192471
 H         1.744174        -0.724496         1.111546
 H        -2.729641        -0.657878        -0.996346
 H        -3.063391        -0.047180         1.687775
 H        -2.303212         2.381442        -0.430107
 H        -3.061900         1.479820        -1.639916
 H        -4.861768         1.895094         0.646673
 H        -4.975775         0.759113        -2.192969
 H        -6.354068         0.596955        -0.996618
