19
Iteration:  1224charge 0 multiplicity 1
 C         1.267029        -0.170477        -0.413629
 C        -0.180195        -0.185525        -0.324566
 C        -1.350082         0.020971        -0.030267
 C        -2.756965         0.163050         0.425584
 O        -2.842631         0.000659         1.888911
 C        -3.506320         1.457570         0.206553
 C        -4.727430         1.295346        -0.675141
 C        -4.768232         1.291108        -2.153251
 O        -5.006234         2.468524        -1.478419
 H         1.849074        -1.157465        -0.376322
 H         1.597276         0.297602        -1.433813
 H         1.597166         0.616390         0.352547
 H        -3.285593        -0.715887         0.040960
 H        -2.157672        -0.537058         2.324330
 H        -3.735578         1.676572         1.271734
 H        -2.842041         2.115092        -0.426521
 H        -5.658714         0.936382        -0.179682
 H        -3.815200         1.545786        -2.715563
 H        -5.691809         0.848810        -2.581061
