19
Iteration:  2461charge 0 multiplicity 1
 C         1.410274         0.159079        -0.124583
 C        -0.011712         0.097778         0.201987
 C        -1.268591        -0.018932         0.062285
 C        -2.718688        -0.165953        -0.012916
 O        -3.153593        -0.371932         1.338875
 C        -3.064083         1.242602        -0.376795
 C        -4.597697         1.658377        -0.426314
 C        -5.373505         1.187644        -1.558744
 O        -5.001043         2.552408        -1.475426
 H         1.766989        -0.751441        -0.666832
 H         1.409042         1.100705        -0.719609
 H         2.044454         0.325324         0.800144
 H        -3.014269        -1.021847        -0.570526
 H        -2.501277         0.031828         1.980810
 H        -2.581243         1.912171         0.280794
 H        -2.729385         1.468787        -1.316497
 H        -5.135399         2.054032         0.434193
 H        -4.823498         0.622496        -2.397628
 H        -6.469792         1.028511        -1.559241
