19
Iteration:  1323charge 0 multiplicity 1
 C         0.912762        -0.192550        -1.024417
 C        -0.322452        -0.188628        -0.290811
 C        -1.272720         0.166417         0.340132
 C        -2.720086         0.196747         0.703275
 O        -3.158042         0.037718         2.144192
 C        -3.435533         1.433517         0.256180
 C        -4.318508         1.136613        -0.905102
 C        -4.242643         1.593881        -2.283536
 O        -5.181990         2.167352        -1.403881
 H         1.279179        -0.858162        -1.833845
 H         0.794908         0.830298        -1.529038
 H         1.740901        -0.031260        -0.263502
 H        -3.303471        -0.644597         0.128228
 H        -2.272569        -0.124888         2.609921
 H        -4.195077         1.762847         1.026912
 H        -2.787316         2.315142         0.043085
 H        -4.943585         0.231133        -0.784336
 H        -3.249603         2.069899        -2.454073
 H        -4.833882         1.003734        -3.047434
