19
Iteration:   442charge 0 multiplicity 1
 C         1.354477        -0.109538        -0.247768
 C        -0.034110         0.107023        -0.076141
 C        -1.234321         0.042799        -0.025120
 C        -2.639242         0.002449         0.166621
 O        -2.887063        -0.346556         1.637569
 C        -3.287214         1.290634        -0.134539
 C        -4.790100         1.517196        -0.485964
 C        -5.200419         1.237334        -1.904768
 O        -4.997432         2.647943        -1.410793
 H         1.629411         0.007312        -1.300655
 H         1.926300         0.704359         0.248422
 H         1.719401        -0.980381         0.279517
 H        -3.121500        -0.856438        -0.267304
 H        -3.840534        -0.071910         1.817905
 H        -3.027563         1.832696         0.826391
 H        -2.907540         1.838630        -0.980308
 H        -5.557435         1.296904         0.302063
 H        -4.463856         0.913773        -2.609460
 H        -6.213324         1.032627        -2.186632
