19
Iteration:  1709charge 0 multiplicity 1
 C         0.402241         0.082348        -1.391212
 C        -0.673357        -0.092824        -0.371388
 C        -1.591262        -0.122844         0.417130
 C        -2.873703         0.003664         1.086215
 O        -2.703744         0.449833         2.464059
 C        -3.773936         1.058250         0.398893
 C        -4.138083         1.044163        -1.140554
 C        -3.544305         1.851838        -2.252363
 O        -4.940615         2.005805        -1.686390
 H         0.394714         1.044048        -1.841737
 H         1.355789        -0.170511        -0.968661
 H         0.289122        -0.661001        -2.172717
 H        -3.443372        -0.859379         1.107699
 H        -2.666640        -0.326891         3.031128
 H        -4.845132         0.956675         0.807469
 H        -3.259019         2.000353         0.634150
 H        -4.645812         0.067078        -1.316637
 H        -3.134435         2.851558        -2.082874
 H        -3.406276         1.504698        -3.310988
