19
Iteration:  4707charge 0 multiplicity 1
 C         1.050455        -0.513832        -0.671644
 C        -0.340935        -0.313049        -0.194826
 C        -1.485358         0.034355         0.142947
 C        -2.889149         0.153075         0.749508
 O        -2.651063         0.626756         2.132468
 C        -3.703547         1.290408         0.190277
 C        -4.411242         1.091682        -1.144249
 C        -4.230653         1.749704        -2.349639
 O        -5.230060         2.168065        -1.365658
 H         1.649304         0.431624        -0.840497
 H         1.687487        -1.176973        -0.021499
 H         1.090203        -1.001511        -1.661347
 H        -3.362369        -0.834556         0.800113
 H        -2.000856        -0.027445         2.330949
 H        -4.566161         1.480632         0.746587
 H        -3.151281         2.291115         0.215649
 H        -4.987287         0.152385        -1.284298
 H        -3.451420         2.451363        -2.640403
 H        -4.678858         1.215151        -3.295933
