19
Iteration:   536charge 0 multiplicity 1
 C         1.245791         0.025836        -0.565161
 C        -0.122396         0.100076        -0.083552
 C        -1.303874        -0.210927         0.097280
 C        -2.706447        -0.009273         0.362825
 O        -3.239220        -0.095991         1.709231
 C        -3.051839         1.490796        -0.188018
 C        -4.612344         1.260115        -0.584979
 C        -4.707914         1.371536        -1.976815
 O        -5.196835         2.458795        -1.167717
 H         1.277652         0.369385        -1.597193
 H         1.949126         0.592400         0.018444
 H         1.584069        -0.986308        -0.377702
 H        -3.270390        -0.563421        -0.442523
 H        -3.394628        -0.996710         2.022204
 H        -3.091321         2.257040         0.555830
 H        -2.473881         1.773671        -1.057376
 H        -5.189779         0.417732        -0.146824
 H        -3.746928         1.576331        -2.507940
 H        -5.560365         1.014413        -2.583425
