19
Iteration:  2100
 C         1.452820        -0.114229        -0.097402
 C         0.028886         0.030537        -0.126909
 C        -1.181255         0.129954         0.201357
 C        -2.665294         0.140032         0.180358
 O        -3.054762        -0.051193         1.617794
 C        -3.168980         1.397621        -0.469161
 C        -4.600742         1.559247        -0.544173
 C        -5.450642         0.965344        -1.668501
 O        -5.071717         2.404112        -1.532056
 H         1.740085        -0.380344         0.896951
 H         1.903254        -0.832978        -0.758962
 H         1.935507         0.780475        -0.461694
 H        -2.920494        -0.751653        -0.451231
 H        -3.721508        -0.809535         1.655365
 H        -2.822994         2.300045         0.144875
 H        -2.608817         1.482459        -1.369428
 H        -4.991132         1.587757         0.488857
 H        -4.943496         0.324290        -2.410569
 H        -6.514016         0.953486        -1.549085
