19
Iteration:  4583
 C         0.634847        -0.599797        -0.980881
 C        -0.562339        -0.187385        -0.328388
 C        -1.591530         0.041884         0.258797
 C        -2.749160         0.291888         0.935324
 O        -2.631680         0.659105         2.315943
 C        -3.740025         1.333700         0.265831
 C        -4.026318         1.094063        -1.135853
 C        -3.960569         2.131542        -2.116711
 O        -5.266130         1.605977        -1.744623
 H         1.176012         0.252097        -1.411644
 H         1.350493        -1.097719        -0.191431
 H         0.521392        -1.374850        -1.816816
 H        -3.427179        -0.569269         0.872274
 H        -1.888425         0.263421         2.734298
 H        -4.640879         1.326513         0.912383
 H        -3.464783         2.353047         0.397063
 H        -3.851136        -0.013711        -1.382552
 H        -3.812033         3.087260        -1.668753
 H        -3.652544         1.852607        -3.086620
