19
Iteration:  2531
 C         1.453473         0.040497        -0.353852
 C        -0.041450        -0.070965        -0.221708
 C        -1.203042         0.051980         0.197430
 C        -2.677501        -0.018645         0.286294
 O        -3.161552        -0.248906         1.637217
 C        -3.321637         1.307516        -0.037878
 C        -4.660644         1.329762        -0.620151
 C        -4.932654         1.328565        -2.048535
 O        -5.211158         2.589371        -1.328241
 H         1.858848        -0.588803        -1.120388
 H         1.445834         1.117410        -0.574830
 H         1.981904        -0.175032         0.565096
 H        -2.876713        -0.875454        -0.312303
 H        -2.735829         0.303534         2.326922
 H        -3.401982         1.947349         0.898170
 H        -2.499619         1.848959        -0.733043
 H        -5.347477         0.757571         0.038760
 H        -4.117068         1.521240        -2.735335
 H        -5.747092         0.660748        -2.446865
