19
Iteration:  3666charge 0 multiplicity 1
 C         1.443591        -0.133728         0.138822
 C        -0.067076         0.010613         0.162196
 C        -1.240878        -0.070870        -0.106652
 C        -2.694427         0.051256         0.058364
 O        -3.098445        -0.104006         1.452434
 C        -3.005912         1.542650        -0.600326
 C        -4.494722         1.925870        -0.565041
 C        -5.428762         0.986453        -1.176439
 O        -5.165102         2.287452        -1.784818
 H         1.697043        -1.180723         0.189099
 H         1.857024         0.321324        -0.865145
 H         1.871970         0.432549         0.999156
 H        -3.201825        -0.638076        -0.616358
 H        -2.521189        -0.805280         1.834699
 H        -2.507408         2.256307        -0.103020
 H        -2.725061         1.281096        -1.631015
 H        -4.986608         2.246041         0.342211
 H        -4.987677         0.147434        -1.770828
 H        -6.420236         0.855681        -0.744420
