19
Iteration:   408charge 0 multiplicity 1
 C         1.294592        -0.140178        -0.083764
 C        -0.090042         0.184365        -0.045399
 C        -1.288792        -0.048484        -0.064098
 C        -2.745713         0.139658         0.056373
 O        -2.897281        -0.387557         1.507025
 C        -3.112141         1.549227        -0.296012
 C        -4.589387         1.549751        -0.483689
 C        -5.204456         1.121145        -1.734923
 O        -5.097703         2.537029        -1.317992
 H         1.627276        -0.360023        -1.107191
 H         1.833556         0.742637         0.283267
 H         1.556250        -1.032505         0.472607
 H        -3.222336        -0.568363        -0.585149
 H        -3.827948        -0.736042         1.555619
 H        -2.583792         2.043630         0.531553
 H        -2.544180         1.798977        -1.146674
 H        -5.169712         1.321999         0.396705
 H        -4.685675         0.892778        -2.637882
 H        -6.218180         0.837291        -1.703115
