19
Iteration:  3883
 C         1.196389        -0.331616        -0.356275
 C        -0.128456         0.022377         0.008833
 C        -1.320615        -0.099290         0.229782
 C        -2.695619         0.191286         0.412863
 O        -2.781131         0.307745         1.921515
 C        -3.204231         1.489757        -0.180498
 C        -4.542794         1.142516        -0.876661
 C        -4.899487         1.344004        -2.289216
 O        -5.405710         2.223543        -1.345546
 H         1.053305        -1.158631        -0.990196
 H         1.623487         0.473238        -0.841943
 H         1.693451        -0.592041         0.597649
 H        -3.263721        -0.614640        -0.012761
 H        -2.153314         0.994550         2.086926
 H        -3.548765         2.184328         0.698230
 H        -2.308753         1.824104        -0.809993
 H        -5.144706         0.512553        -0.258959
 H        -4.138941         1.587215        -3.047733
 H        -5.683039         0.776361        -2.741066
