19
Iteration:  2719
 C         0.915716         0.035180        -0.733454
 C        -0.534096        -0.055829        -0.513113
 C        -1.602108         0.051759         0.008232
 C        -2.910679        -0.054170         0.782176
 O        -2.535472         0.063515         2.166136
 C        -3.802737         1.107897         0.391863
 C        -4.310640         1.099942        -1.051975
 C        -3.926258         2.024158        -2.166910
 O        -5.282739         2.033581        -1.486313
 H         1.388637         0.028507        -1.750064
 H         1.258929         0.921928        -0.155160
 H         1.380218        -0.908376        -0.433349
 H        -3.374626        -1.040928         0.732981
 H        -1.787784         0.737040         2.140035
 H        -4.786646         1.070589         0.909404
 H        -3.270737         2.111092         0.746348
 H        -4.537307         0.031212        -1.368834
 H        -3.287162         2.856856        -1.839132
 H        -3.842369         1.710122        -3.185957
