19
Iteration:  2080
 C         1.406689        -0.031527        -0.268590
 C        -0.011445         0.089803        -0.128530
 C        -1.131316         0.051137         0.211409
 C        -2.634230         0.021503         0.389369
 O        -3.110600        -0.048081         1.711723
 C        -3.075527         1.350211        -0.340382
 C        -4.649834         1.438013        -0.541983
 C        -5.368497         1.093765        -1.802657
 O        -5.083828         2.442289        -1.609267
 H         1.835751        -0.247224         0.768351
 H         1.664766        -0.908573        -0.965707
 H         2.048236         0.771174        -0.781027
 H        -2.865474        -0.884448        -0.157125
 H        -4.071529        -0.201274         1.658276
 H        -2.719861         2.236930         0.230964
 H        -2.607176         1.397190        -1.310233
 H        -5.358102         1.519126         0.333362
 H        -4.837643         0.753446        -2.699941
 H        -6.396407         0.701467        -1.670418
