19
Iteration:  1054charge 0 multiplicity 1
 C         1.354741        -0.195740        -0.200446
 C         0.071991         0.084759         0.330757
 C        -1.126847         0.021060         0.235045
 C        -2.579459         0.153670         0.012282
 O        -3.314939        -0.310354         1.165803
 C        -2.959996         1.513535        -0.540759
 C        -4.466112         1.541913        -0.467197
 C        -5.418077         1.117296        -1.496612
 O        -5.199818         2.495564        -1.330087
 H         2.056205        -0.532709         0.531997
 H         1.271471        -0.905369        -0.989361
 H         1.766507         0.693476        -0.643147
 H        -2.839489        -0.565103        -0.684768
 H        -2.918222         0.016180         1.957879
 H        -2.506172         2.353407        -0.051702
 H        -2.795029         1.596072        -1.584174
 H        -4.902264         1.787968         0.536107
 H        -4.925430         0.551252        -2.308359
 H        -6.486567         0.795829        -1.347353
