19
Iteration:  4096
 C         0.967277        -0.182572        -0.806982
 C        -0.276186         0.011553        -0.090185
 C        -1.405311         0.087911         0.256896
 C        -2.765180         0.268609         0.761033
 O        -2.831911         0.237259         2.193608
 C        -3.431146         1.542456         0.102495
 C        -4.618085         1.185985        -0.752868
 C        -4.485530         0.996221        -2.285374
 O        -5.022888         2.252515        -1.728481
 H         0.762825        -0.413823        -1.867477
 H         1.625640         0.693199        -0.826223
 H         1.589374        -0.989604        -0.563231
 H        -3.366678        -0.680361         0.465902
 H        -2.171291        -0.407459         2.330547
 H        -3.766922         2.408899         0.740936
 H        -2.593727         2.035129        -0.663767
 H        -5.578470         0.821595        -0.351738
 H        -3.450838         0.985039        -2.805524
 H        -5.194546         0.392533        -2.834257
