19
Iteration:   363
 C         1.633358        -0.059531         0.036962
 C         0.161159        -0.307108        -0.098976
 C        -1.046741        -0.061461        -0.087982
 C        -2.544021         0.103702        -0.083655
 O        -3.317318        -0.194962         1.306235
 C        -3.111869         1.626305        -0.284597
 C        -4.697776         1.638147        -0.385656
 C        -5.370035         1.077670        -1.545772
 O        -5.291650         2.554834        -1.304859
 H         2.209334        -0.509692        -0.790159
 H         1.819164         0.997484         0.202423
 H         2.021190        -0.710769         0.828887
 H        -3.006328        -0.522836        -0.808278
 H        -3.851017        -1.037601         1.115118
 H        -2.750228         2.337995         0.500357
 H        -2.855564         2.121261        -1.181645
 H        -5.093698         1.585107         0.552411
 H        -4.688476         0.735086        -2.296229
 H        -6.349487         0.629350        -1.489491
