19
Iteration:  3018charge 0 multiplicity 1
 C         0.768821         0.135677        -1.040441
 C        -0.517945         0.145029        -0.329716
 C        -1.609847         0.020944         0.136854
 C        -2.907280        -0.006174         0.914018
 O        -2.680374         0.034998         2.347326
 C        -3.896361         1.118241         0.383093
 C        -4.304687         1.018149        -1.056916
 C        -3.811998         1.726252        -2.239216
 O        -5.000704         2.156558        -1.637139
 H         1.156602         1.175456        -1.268470
 H         1.399846        -0.522771        -0.376411
 H         0.753459        -0.435032        -2.040525
 H        -3.533131        -0.914575         0.792272
 H        -1.796041         0.501685         2.487272
 H        -4.743458         1.025422         0.967563
 H        -3.482595         2.104318         0.677415
 H        -4.605901         0.000625        -1.352622
 H        -2.961608         2.312736        -1.963090
 H        -3.929956         1.376352        -3.215110
