19
Iteration:  3761charge 0 multiplicity 1
 C         1.368144        -0.136811        -0.371714
 C        -0.050862         0.042331         0.059895
 C        -1.254589        -0.007383         0.381414
 C        -2.698713        -0.014505         0.423790
 O        -3.112100         0.187236         1.658692
 C        -3.146317         1.295278        -0.504301
 C        -4.555537         1.518584        -0.568412
 C        -5.159761         1.060869        -1.892089
 O        -5.121297         2.485043        -1.545278
 H         1.371987        -1.156205        -0.712054
 H         1.443474         0.495242        -1.150103
 H         1.979364         0.066433         0.507718
 H        -3.067507        -0.973824         0.016148
 H        -2.842202        -0.572242         2.126084
 H        -2.561184         2.151476         0.081799
 H        -2.799424         1.125572        -1.549718
 H        -5.197722         1.379473         0.327439
 H        -4.447835         0.555762        -2.557457
 H        -6.168910         0.685343        -1.975811
