19
Iteration:  1258charge 0 multiplicity 1
 C         1.123824        -0.224821        -0.675875
 C        -0.180948         0.069366        -0.100645
 C        -1.418409         0.000241         0.084604
 C        -2.806403         0.088489         0.496306
 O        -2.825916         0.009531         2.000216
 C        -3.446818         1.407558         0.070597
 C        -4.698112         1.274931        -0.707282
 C        -4.479665         1.380219        -2.188688
 O        -5.136327         2.436558        -1.432592
 H         1.416579        -1.301813        -0.894516
 H         1.143025         0.382295        -1.663248
 H         1.978693         0.183055        -0.024927
 H        -3.178351        -0.836938         0.107194
 H        -2.761253        -0.906784         2.255417
 H        -3.591834         2.141400         0.887295
 H        -2.580178         1.858277        -0.405686
 H        -5.442520         0.549328        -0.297960
 H        -3.601463         1.701051        -2.700990
 H        -5.104364         0.746043        -2.809695
