19
Iteration:  2458charge 0 multiplicity 1
 C         1.417471         0.170811        -0.116620
 C        -0.003569         0.091696         0.202627
 C        -1.240301        -0.047917         0.056762
 C        -2.720072        -0.135022        -0.013573
 O        -3.160575        -0.368888         1.318098
 C        -3.107520         1.234201        -0.398828
 C        -4.591390         1.664439        -0.418085
 C        -5.373529         1.194479        -1.536331
 O        -4.992321         2.548331        -1.482701
 H         1.759197        -0.804592        -0.602097
 H         1.550690         1.139147        -0.667871
 H         2.002072         0.381925         0.821377
 H        -3.059952        -1.094206        -0.593513
 H        -2.612152         0.004170         1.982084
 H        -2.571627         1.910082         0.273035
 H        -2.663185         1.468171        -1.389273
 H        -5.150453         2.077440         0.457643
 H        -4.936082         0.595843        -2.316318
 H        -6.441174         0.964882        -1.385618
