19
Iteration:  2795charge 0 multiplicity 1
 C         0.411046         0.175328        -1.314274
 C        -0.735557         0.110244        -0.439215
 C        -1.630158         0.028215         0.297902
 C        -2.868144        -0.140797         1.000805
 O        -2.612532         0.221415         2.341267
 C        -3.977897         0.889879         0.431341
 C        -4.074978         0.979475        -1.076159
 C        -3.446033         2.033285        -1.982495
 O        -4.916155         2.026124        -1.707818
 H         0.177839         0.667837        -2.330185
 H         1.074390         1.054291        -1.111380
 H         0.909059        -0.806532        -1.406925
 H        -3.145394        -1.246420         0.834800
 H        -3.368409        -0.138178         2.820184
 H        -4.936643         0.563116         0.687468
 H        -3.865625         1.905364         0.726653
 H        -4.369815        -0.000266        -1.551540
 H        -2.818447         2.791246        -1.474975
 H        -3.313151         1.928064        -3.057863
