19
Iteration:   260charge 0 multiplicity 1
 C         1.590104        -0.300139         0.353559
 C         0.166741         0.046922         0.039824
 C        -1.033651         0.141287        -0.025439
 C        -2.470462         0.109043        -0.265876
 O        -3.072317        -0.522625         0.823097
 C        -3.046201         1.521681        -0.542342
 C        -4.625621         1.705465        -0.311958
 C        -5.756386         1.189457        -1.122933
 O        -5.318166         2.576659        -1.321158
 H         1.764653        -1.305680        -0.073757
 H         2.395261         0.355092        -0.060881
 H         1.730973        -0.330326         1.457658
 H        -2.731135        -0.370457        -1.200405
 H        -3.898543        -0.209742         1.170717
 H        -2.543887         2.248824         0.121208
 H        -2.838229         1.584520        -1.683799
 H        -5.001532         2.056603         0.733128
 H        -5.771495         0.688432        -2.171298
 H        -6.741426         1.044152        -0.577340
