19
Iteration:  4360
 C         0.491011        -0.285795        -1.265911
 C        -0.682778         0.029241        -0.484365
 C        -1.675831         0.032774         0.232102
 C        -2.926601         0.161439         1.039619
 O        -2.664129         0.723277         2.494446
 C        -3.858449         1.185906         0.405994
 C        -4.356899         0.860198        -1.071671
 C        -3.532795         1.471101        -2.159751
 O        -4.813932         2.045303        -1.731152
 H         0.548845         0.396355        -2.235826
 H         1.411621        -0.031236        -0.733338
 H         0.551907        -1.342575        -1.566649
 H        -3.328992        -0.787426         1.374939
 H        -1.900081         1.318341         2.583477
 H        -4.785833         1.208491         0.999216
 H        -3.314457         2.085162         0.264727
 H        -4.922327        -0.044740        -0.990100
 H        -2.599937         2.021302        -1.876898
 H        -3.491621         1.021238        -3.100337
