19
Iteration:  4720charge 0 multiplicity 1
 C         1.080007        -0.531577        -0.695900
 C        -0.261494        -0.213604        -0.223781
 C        -1.473165        -0.050490         0.143325
 C        -2.859211         0.153134         0.804143
 O        -2.717916         0.582457         2.149053
 C        -3.707192         1.259233         0.192731
 C        -4.426310         1.022710        -1.048704
 C        -4.332029         1.758862        -2.443191
 O        -5.175089         2.271402        -1.447652
 H         1.610536         0.480090        -0.729687
 H         1.523554        -1.157540         0.047931
 H         1.021858        -0.997023        -1.680535
 H        -3.445239        -0.759918         0.697880
 H        -1.884242         0.287765         2.640306
 H        -4.392648         1.427684         1.039272
 H        -3.010834         2.165669         0.174385
 H        -5.024597         0.120251        -0.930261
 H        -3.466152         2.417647        -2.587018
 H        -4.884691         1.181051        -3.359169
