19
Iteration:  3669
 C         1.425912        -0.122622         0.122558
 C        -0.043188        -0.004985         0.163061
 C        -1.245682        -0.069301        -0.078674
 C        -2.706404         0.063362         0.047165
 O        -3.085317        -0.094552         1.455737
 C        -3.039967         1.508207        -0.575655
 C        -4.495082         1.915496        -0.580602
 C        -5.410139         0.967902        -1.193261
 O        -5.166440         2.314290        -1.787474
 H         1.769539        -1.186800         0.150416
 H         1.877048         0.330035        -0.834185
 H         1.868869         0.433187         0.936967
 H        -3.231553        -0.704372        -0.558485
 H        -2.527866        -0.835887         1.850958
 H        -2.425935         2.250798         0.060543
 H        -2.857391         1.339535        -1.653695
 H        -4.918743         2.363216         0.297508
 H        -4.977482         0.125456        -1.764707
 H        -6.373467         0.870781        -0.785786
