19
Iteration:   542charge 0 multiplicity 1
 C         1.281696         0.003847        -0.578512
 C        -0.141053         0.105977        -0.116083
 C        -1.303541        -0.197161         0.123062
 C        -2.715654         0.051511         0.327363
 O        -3.311338        -0.078170         1.707666
 C        -3.098892         1.460637        -0.160990
 C        -4.568761         1.200568        -0.559522
 C        -4.696647         1.383383        -2.033202
 O        -5.191157         2.468351        -1.128397
 H         1.446826         0.390457        -1.607493
 H         1.959324         0.681149         0.010483
 H         1.765653        -1.007054        -0.556457
 H        -3.291162        -0.690737        -0.260664
 H        -3.165597        -0.968538         2.043816
 H        -2.897001         2.254908         0.634507
 H        -2.321381         1.620230        -0.956064
 H        -5.370716         0.549775        -0.044749
 H        -3.800828         1.607485        -2.598063
 H        -5.379617         0.813419        -2.672529
