19
Iteration:  2554charge 0 multiplicity 1
 C         1.355080        -0.034649        -0.458908
 C        -0.073355         0.013721        -0.054003
 C        -1.280929         0.018590         0.074888
 C        -2.674425         0.113832         0.349361
 O        -3.045758        -0.320453         1.751318
 C        -3.351741         1.466394        -0.074815
 C        -4.726871         1.229204        -0.659820
 C        -4.731729         1.426830        -2.198477
 O        -5.222551         2.398427        -1.215001
 H         1.582000        -0.693399        -1.283316
 H         1.632059         1.023193        -0.556875
 H         1.891237        -0.458680         0.373082
 H        -3.099682        -0.587462        -0.368429
 H        -2.887522         0.397286         2.368873
 H        -3.508507         2.164610         0.832450
 H        -2.729839         2.169656        -0.837670
 H        -5.440824         0.679331         0.008732
 H        -3.824661         1.753779        -2.686408
 H        -5.512887         1.075543        -2.891191
