19
Iteration:  3034
 C         0.861305         0.024508        -0.901535
 C        -0.512733         0.183291        -0.404800
 C        -1.608215         0.122704         0.095972
 C        -2.860881         0.019941         0.820427
 O        -2.679951         0.012063         2.280621
 C        -3.813733         1.126005         0.397379
 C        -4.426981         0.947062        -1.046748
 C        -3.801363         1.731437        -2.194278
 O        -5.071160         2.154892        -1.560400
 H         1.396339         0.940793        -1.072680
 H         1.602507        -0.638563        -0.414669
 H         0.922955        -0.446092        -1.861412
 H        -3.203372        -1.017219         0.620200
 H        -2.635999         0.922185         2.547943
 H        -4.787623         1.303010         1.083133
 H        -3.298229         2.097820         0.322679
 H        -5.131434         0.121986        -1.234741
 H        -2.978193         2.505906        -2.168604
 H        -3.908632         1.262668        -3.257818
