19
Iteration:  1491
 C         0.487892        -0.076884        -1.229912
 C        -0.778896         0.075394        -0.398665
 C        -1.867123         0.036852         0.026570
 C        -2.926234         0.069203         0.998183
 O        -2.405591         0.522099         2.266598
 C        -4.256092         0.810360         0.449151
 C        -4.223070         0.885678        -1.087297
 C        -3.372163         1.746161        -1.856223
 O        -4.744432         2.177083        -1.646309
 H         0.296513        -0.173004        -2.337387
 H         1.024186         0.888424        -1.175569
 H         1.053347        -0.959379        -0.898994
 H        -3.231265        -1.002072         1.281063
 H        -1.702705         1.147810         1.890280
 H        -5.069872         0.233757         0.905013
 H        -4.474813         1.808265         0.787931
 H        -4.513254         0.015356        -1.682423
 H        -2.642291         2.359786        -1.382768
 H        -3.090653         1.532474        -2.850181
