19
Iteration:  3051
 C         0.950532        -0.063551        -0.812696
 C        -0.422189         0.145820        -0.461559
 C        -1.532285         0.229947         0.098387
 C        -2.853103         0.045124         0.720949
 O        -2.679545         0.058720         2.138332
 C        -3.818399         1.179875         0.308545
 C        -4.483417         0.995486        -0.972843
 C        -3.896961         1.657256        -2.116646
 O        -5.126067         2.151686        -1.485270
 H         1.573733         0.853256        -0.645518
 H         1.308552        -0.686285         0.032332
 H         0.993527        -0.515200        -1.858735
 H        -3.254621        -0.937662         0.387247
 H        -3.402807         0.553308         2.484799
 H        -4.489003         1.147690         1.071258
 H        -3.250895         2.118968         0.326532
 H        -4.939196         0.004248        -1.136639
 H        -2.968516         2.120290        -1.888263
 H        -3.999721         1.286991        -3.115804
