19
Iteration:  2981
 C         0.440718         0.377952        -1.236298
 C        -0.599614        -0.047037        -0.374352
 C        -1.698933        -0.078307         0.225089
 C        -2.968727        -0.073488         0.938980
 O        -2.685115         0.230331         2.342578
 C        -3.807734         1.117882         0.467313
 C        -4.177851         0.928071        -1.053993
 C        -3.517038         1.744536        -2.069689
 O        -4.903463         2.082833        -1.718712
 H         0.559877         1.471986        -1.515188
 H         1.444292         0.295426        -0.754715
 H         0.330655        -0.222819        -2.180256
 H        -3.384210        -1.077129         0.815888
 H        -2.791012        -0.566073         2.862507
 H        -4.832098         1.098876         0.957925
 H        -3.281191         2.039561         0.620124
 H        -4.427250        -0.126900        -1.346156
 H        -2.778283         2.500283        -1.741048
 H        -3.457443         1.526970        -3.182221
