19
Iteration:  2883charge 0 multiplicity 1
 C        -0.113977         0.399809        -1.729529
 C        -0.790621         0.286456        -0.436516
 C        -1.620783         0.130829         0.381744
 C        -2.895356         0.003184         1.105115
 O        -2.884419         0.028876         2.594903
 C        -4.048208         0.877204         0.400247
 C        -3.961480         0.859810        -1.102157
 C        -3.043392         1.795221        -1.774487
 O        -4.515730         1.979249        -1.842917
 H        -0.697829         0.919878        -2.612323
 H         0.914180         0.896450        -1.631408
 H        -0.113255        -0.627459        -2.196251
 H        -3.344471        -1.037684         1.039295
 H        -2.376837         0.820993         2.732813
 H        -4.903609         0.462524         0.851441
 H        -4.002099         1.918918         0.629607
 H        -4.172091        -0.108977        -1.638308
 H        -2.495372         2.594134        -1.286841
 H        -2.692772         1.380669        -2.757673
