19
Iteration:  3593
 C         1.551035        -0.248461         0.480236
 C         0.125215        -0.212103         0.155559
 C        -1.036225        -0.020562        -0.170268
 C        -2.560563         0.278842        -0.147226
 O        -3.232813        -0.122343         1.012979
 C        -3.006903         1.673876        -0.749126
 C        -4.505906         1.893196        -0.528820
 C        -5.600313         0.915970        -0.809960
 O        -5.316213         2.208022        -1.675383
 H         1.786632        -1.237514         0.891339
 H         2.044163        -0.135869        -0.481273
 H         1.817233         0.501199         1.178882
 H        -3.014941        -0.473098        -0.852869
 H        -3.339491         0.571395         1.634444
 H        -2.374357         2.520389        -0.231011
 H        -2.988494         1.593828        -1.847634
 H        -4.766805         2.550989         0.274093
 H        -5.580128        -0.055042        -1.365374
 H        -6.392427         1.007163        -0.134564
