19
Iteration:  3535charge 0 multiplicity 1
 C         1.474054        -0.453434         0.536244
 C         0.143321         0.073267         0.282312
 C        -1.010251         0.260339        -0.131826
 C        -2.570372         0.263706        -0.340608
 O        -3.303109        -0.074979         0.943420
 C        -3.037591         1.549343        -0.945169
 C        -4.466270         1.881842        -0.463869
 C        -5.529570         0.908108        -0.766634
 O        -5.350968         2.159216        -1.527384
 H         1.334167        -1.323155         1.126571
 H         2.082878        -0.671284        -0.438084
 H         1.991401         0.304612         1.159661
 H        -2.762788        -0.562585        -1.062592
 H        -2.727155        -0.760595         1.433952
 H        -2.138036         2.296997        -0.776902
 H        -3.082373         1.668198        -2.072202
 H        -4.608183         2.574064         0.379248
 H        -5.241721        -0.045356        -1.150597
 H        -6.429979         0.973466        -0.063807
