19
Iteration:  3376
 C         1.444711         0.031858         0.129401
 C        -0.001154        -0.088416        -0.037620
 C        -1.225062        -0.107352         0.062840
 C        -2.594130         0.011799         0.040650
 O        -3.082582        -0.100386         1.400678
 C        -3.130592         1.357741        -0.551106
 C        -4.558942         1.695343        -0.433474
 C        -5.446500         1.106035        -1.501831
 O        -5.134965         2.495152        -1.548760
 H         1.859841        -0.058428         1.214503
 H         1.998708        -0.713500        -0.425221
 H         1.826052         1.054241        -0.044138
 H        -2.844903        -0.877831        -0.577124
 H        -3.084672        -1.102671         1.597612
 H        -2.593976         2.047270        -0.005813
 H        -2.789512         1.537800        -1.543221
 H        -5.061624         1.977134         0.523804
 H        -5.142183         0.437605        -2.332160
 H        -6.542070         0.897607        -1.291584
