19
Iteration:  1262
 C         1.108783        -0.226431        -0.701573
 C        -0.205658         0.077209        -0.099562
 C        -1.395013         0.014687         0.094360
 C        -2.769735         0.063935         0.552787
 O        -2.841261         0.019332         2.014024
 C        -3.427457         1.390400         0.091835
 C        -4.668788         1.296005        -0.712337
 C        -4.482146         1.439119        -2.202002
 O        -5.154890         2.391291        -1.455997
 H         1.284728        -1.272396        -0.913752
 H         1.091017         0.383860        -1.576413
 H         1.933204         0.160897        -0.125107
 H        -3.332807        -0.823495        -0.002841
 H        -2.798779        -0.987409         2.119615
 H        -3.566969         2.124391         0.893637
 H        -2.622198         1.843507        -0.482409
 H        -5.377373         0.559503        -0.330402
 H        -3.513379         1.604628        -2.685390
 H        -5.073502         0.783066        -2.821870
