19
Iteration:  1850charge 0 multiplicity 1
 C         0.934014        -0.276968        -0.674572
 C        -0.428510         0.192843        -0.319156
 C        -1.652851         0.362762        -0.130854
 C        -2.879820         0.211648         0.686945
 O        -2.560484         0.076752         1.997334
 C        -3.830766         1.391548         0.363207
 C        -4.596897         1.062820        -0.843525
 C        -3.960111         1.332910        -2.166902
 O        -5.025372         2.164117        -1.502536
 H         1.662665         0.358168        -0.149997
 H         0.916001        -1.256802        -0.118919
 H         1.071106        -0.515108        -1.752108
 H        -3.192539        -0.893577         0.412439
 H        -1.787780         0.607783         2.185770
 H        -4.535068         1.351703         1.176883
 H        -3.274216         2.258022         0.310114
 H        -5.269762         0.176009        -0.688065
 H        -2.934356         1.705108        -2.129088
 H        -4.293964         0.626824        -2.877011
