19
Iteration:  4586charge 0 multiplicity 1
 C         0.608749        -0.597733        -0.933745
 C        -0.539153        -0.193163        -0.346961
 C        -1.603714         0.062562         0.235598
 C        -2.769899         0.317299         0.953106
 O        -2.615772         0.638172         2.297651
 C        -3.735999         1.345364         0.264096
 C        -4.014184         1.041349        -1.157032
 C        -3.960086         2.134727        -2.126506
 O        -5.290243         1.614809        -1.731301
 H         1.142501         0.195568        -1.360181
 H         1.282530        -1.059921        -0.203220
 H         0.557356        -1.289772        -1.741989
 H        -3.377535        -0.605845         0.912898
 H        -1.815383         0.215623         2.621693
 H        -4.552144         1.335435         0.902855
 H        -3.391261         2.373421         0.484995
 H        -3.821154        -0.014241        -1.316836
 H        -3.700015         3.149875        -1.629434
 H        -3.655069         1.917600        -3.119739
