19
Iteration:  2607charge 0 multiplicity 1
 C         1.273537        -0.201212        -0.507529
 C        -0.127427         0.046863        -0.265615
 C        -1.268422         0.168088         0.229135
 C        -2.655356         0.121842         0.506765
 O        -2.898891        -0.228028         1.920009
 C        -3.462338         1.398229         0.175749
 C        -4.553863         1.195256        -0.920237
 C        -4.575538         1.682604        -2.296569
 O        -5.500341         2.302215        -1.331151
 H         1.305245        -0.591180        -1.534517
 H         1.863076         0.754517        -0.568012
 H         1.595214        -0.983927         0.194901
 H        -3.042352        -0.622391        -0.175481
 H        -2.037405        -0.403923         2.308137
 H        -4.113653         1.538452         1.026700
 H        -2.869204         2.318682         0.010011
 H        -5.042610         0.234328        -0.755011
 H        -3.737516         2.250438        -2.715042
 H        -5.106366         0.970887        -2.992849
