19
Iteration:  4542charge 0 multiplicity 1
 C         0.614407        -0.544435        -1.285510
 C        -0.505822        -0.330624        -0.272875
 C        -1.539000         0.024579         0.360210
 C        -2.815889         0.234344         1.049749
 O        -2.793588         0.825993         2.461061
 C        -3.773613         1.274401         0.314838
 C        -3.922708         1.067661        -1.145269
 C        -3.947018         2.182391        -2.189260
 O        -5.159144         1.578206        -1.759769
 H         0.855432         0.316785        -1.833363
 H         1.535276        -0.934181        -0.859921
 H         0.316757        -1.230757        -2.034881
 H        -3.186748        -0.799482         1.076498
 H        -2.425769         0.134988         3.056336
 H        -4.737496         1.070801         0.691212
 H        -3.464515         2.297216         0.684788
 H        -3.561857         0.109567        -1.523415
 H        -3.859245         3.332288        -2.010634
 H        -3.545713         1.928268        -3.162228
