19
Iteration:   585
 C         1.266975        -0.004312        -0.606509
 C        -0.044388        -0.207905        -0.153048
 C        -1.116270         0.004804         0.408913
 C        -2.621795         0.126894         0.458315
 O        -3.225217        -0.261347         1.726931
 C        -3.223023         1.386845        -0.083778
 C        -4.544072         1.266969        -0.714774
 C        -4.973972         1.490354        -2.158618
 O        -5.207637         2.533632        -1.256097
 H         1.175631         0.607698        -1.549273
 H         1.886987         0.580633         0.152940
 H         1.846580        -0.970980        -0.702659
 H        -2.911985        -0.558504        -0.387210
 H        -2.485851        -0.727398         2.179383
 H        -3.437783         2.160825         0.788325
 H        -2.581278         1.959434        -0.862641
 H        -5.437982         0.766737        -0.190097
 H        -4.186301         1.651328        -2.900547
 H        -5.864798         0.998679        -2.582368
