19
Iteration:  4089charge 0 multiplicity 1
 C         0.979522        -0.206038        -0.779648
 C        -0.236119         0.009307        -0.085491
 C        -1.421260         0.059179         0.275693
 C        -2.754260         0.296450         0.729896
 O        -2.830874         0.261704         2.119813
 C        -3.412229         1.581203         0.079954
 C        -4.659104         1.139605        -0.823344
 C        -4.473278         0.968039        -2.252909
 O        -5.036184         2.266501        -1.664551
 H         0.735779        -0.434307        -1.844783
 H         1.579874         0.687409        -0.789732
 H         1.654648        -1.046180        -0.481110
 H        -3.445093        -0.361493         0.218343
 H        -2.162529        -0.348468         2.398459
 H        -3.707162         2.228153         0.916555
 H        -2.777140         2.186100        -0.414173
 H        -5.508706         0.638585        -0.227817
 H        -3.505390         0.916524        -2.630694
 H        -5.260361         0.512569        -2.876352
