19
Iteration:  2900
 C        -0.035583         0.425456        -1.732680
 C        -0.872676         0.297879        -0.439550
 C        -1.722240         0.071763         0.368641
 C        -3.006287        -0.071040         1.211813
 O        -2.719758         0.034892         2.628922
 C        -4.015629         0.876715         0.456157
 C        -3.906028         0.870336        -1.124871
 C        -3.118294         1.809636        -1.977101
 O        -4.500708         2.003452        -1.847450
 H        -0.640579         1.088810        -2.228092
 H         0.951200         0.724340        -1.490325
 H         0.048746        -0.508503        -2.260610
 H        -3.239753        -1.087631         0.990009
 H        -3.004736         0.888223         2.931659
 H        -5.174723         0.687282         0.545526
 H        -3.963980         1.960548         0.839194
 H        -4.156658        -0.085156        -1.526881
 H        -2.492513         2.402530        -1.241858
 H        -2.645338         1.524500        -2.919101
