19
Iteration:  1905
 C         1.129663        -0.118899        -0.754469
 C        -0.251235        -0.034821        -0.299129
 C        -1.342835         0.163455         0.167508
 C        -2.779308         0.178602         0.662710
 O        -2.748592         0.067624         2.162302
 C        -3.669455         1.456568         0.392696
 C        -4.653153         1.204777        -0.822859
 C        -4.343692         1.277362        -2.290218
 O        -5.190801         2.302104        -1.721676
 H         1.787227         0.667545        -0.313482
 H         1.542588        -1.171569        -0.744021
 H         1.134891         0.239529        -1.831716
 H        -3.308886        -0.827551         0.387324
 H        -2.753073        -0.908981         2.384923
 H        -4.162366         1.677695         1.332044
 H        -2.978749         2.226380         0.254676
 H        -5.448556         0.449602        -0.574444
 H        -3.291766         1.422833        -2.532183
 H        -4.564179         0.390802        -2.814519
