19
Iteration:   341charge 0 multiplicity 1
 C         1.602306        -0.154781         0.031839
 C         0.105291        -0.161746         0.061886
 C        -1.125970        -0.091568         0.020357
 C        -2.540028         0.226996        -0.126932
 O        -3.278241        -0.145244         1.035947
 C        -3.064175         1.571225        -0.311887
 C        -4.629283         1.568211        -0.340690
 C        -5.475651         1.122322        -1.483802
 O        -5.241292         2.462834        -1.260782
 H         2.059370        -0.660921        -0.842070
 H         1.832662         0.908088         0.008829
 H         2.103980        -0.617735         0.896589
 H        -2.901684        -0.301134        -1.026540
 H        -3.149209        -1.070269         1.192163
 H        -2.847547         2.323807         0.464560
 H        -2.654029         1.998692        -1.196574
 H        -5.002077         1.465536         0.595857
 H        -5.144530         0.605666        -2.353664
 H        -6.455382         0.894916        -1.095172
