19
Iteration:  4605charge 0 multiplicity 1
 C         0.790250        -0.626489        -0.859766
 C        -0.629343        -0.181782        -0.331460
 C        -1.673145         0.205773         0.139154
 C        -2.942887         0.253091         0.903886
 O        -2.495534         0.597629         2.325571
 C        -3.769337         1.379575         0.314320
 C        -4.064347         1.011388        -1.195371
 C        -3.999672         2.098994        -2.178126
 O        -5.204775         1.646136        -1.632891
 H         1.404092         0.179571        -1.257688
 H         1.367845        -1.199117        -0.010675
 H         0.630793        -1.398798        -1.695120
 H        -3.569675        -0.650394         0.842133
 H        -1.571744         0.170363         2.431864
 H        -4.732764         1.680833         0.756324
 H        -3.203008         2.281768         0.246795
 H        -3.953421        -0.015992        -1.674523
 H        -3.744704         3.052827        -1.754119
 H        -3.955489         1.903749        -3.196261
