19
Iteration:  1205charge 0 multiplicity 1
 C         1.284600        -0.120417        -0.291337
 C        -0.197667        -0.241047        -0.366208
 C        -1.330677         0.056678        -0.107108
 C        -2.743298         0.101630         0.463812
 O        -2.779974        -0.121187         1.895518
 C        -3.442491         1.485011         0.135548
 C        -4.760259         1.445813        -0.677857
 C        -4.854086         1.209703        -2.151802
 O        -5.077382         2.575330        -1.519832
 H         1.734285        -1.109494        -0.069051
 H         1.801588         0.126017        -1.251066
 H         1.568546         0.631317         0.483874
 H        -3.097771        -0.863219        -0.016618
 H        -1.898149        -0.332584         2.173575
 H        -3.947239         1.890299         1.038068
 H        -2.593243         2.088713        -0.173269
 H        -5.497781         0.956664         0.004626
 H        -4.007711         0.880726        -2.625717
 H        -5.812445         0.818093        -2.375001
