19
Iteration:  1924charge 0 multiplicity 1
 C         1.079471        -0.012810        -0.816339
 C        -0.175287        -0.055157        -0.144072
 C        -1.386124         0.032615         0.184985
 C        -2.795030         0.174745         0.676760
 O        -2.813275         0.085185         2.151555
 C        -3.533696         1.468048         0.211492
 C        -4.612946         1.203348        -0.817089
 C        -4.404115         1.193590        -2.286273
 O        -5.100823         2.276647        -1.588326
 H         1.698913         0.721638        -0.251473
 H         1.472410        -1.059977        -0.914455
 H         0.908377         0.485239        -1.827134
 H        -3.370124        -0.602217         0.255147
 H        -2.981224        -0.897831         2.310558
 H        -4.067087         1.716210         1.147739
 H        -3.046871         2.358226        -0.196563
 H        -5.468559         0.604832        -0.543496
 H        -3.526170         1.615170        -2.711677
 H        -5.044578         0.812022        -3.108807
