19
Iteration:  4006charge 0 multiplicity 1
 C         1.157781        -0.404615        -0.387747
 C        -0.212580        -0.057055        -0.170597
 C        -1.361719         0.213461         0.084320
 C        -2.750664         0.313356         0.564487
 O        -2.603905         0.311235         1.997973
 C        -3.429533         1.564413         0.039658
 C        -4.538875         1.165155        -0.838322
 C        -4.694416         1.186483        -2.331217
 O        -5.351344         2.166678        -1.510192
 H         1.257306        -0.993281        -1.258683
 H         1.830603         0.480558        -0.348875
 H         1.300242        -0.974742         0.524756
 H        -3.328105        -0.554930         0.202837
 H        -2.677532        -0.587952         2.366190
 H        -3.924565         1.957295         0.969898
 H        -2.649546         2.265606        -0.549847
 H        -5.251009         0.600566        -0.263641
 H        -3.860892         1.566608        -2.957465
 H        -5.441054         0.427218        -2.745248
