19
Iteration:  2260charge 0 multiplicity 1
 C         1.421426        -0.351130         0.740701
 C         0.037482        -0.028603         0.321294
 C        -0.934755         0.248277        -0.322613
 C        -2.406178         0.218379        -0.484107
 O        -3.027776        -0.025265         0.814157
 C        -2.979776         1.507013        -1.000877
 C        -4.467054         1.848726        -0.522578
 C        -5.757358         0.911724        -0.659724
 O        -5.541200         2.215680        -1.335881
 H         1.570081        -1.378482         1.243648
 H         2.133182        -0.556697        -0.124174
 H         1.677546         0.593692         1.280110
 H        -2.655357        -0.557667        -1.169045
 H        -2.597030        -0.848307         1.217871
 H        -2.381403         2.383438        -0.792338
 H        -2.928143         1.338015        -2.081090
 H        -4.376768         2.223568         0.487955
 H        -5.796233         0.142881        -1.437572
 H        -6.511615         0.963154         0.093909
