19
Iteration:  1743
 C         0.614318         0.006861        -1.177829
 C        -0.554115        -0.006343        -0.360921
 C        -1.608822        -0.200720         0.238173
 C        -2.961177         0.007631         1.008993
 O        -2.707833         0.526505         2.303752
 C        -3.825028         1.037354         0.297574
 C        -4.296053         0.892605        -1.100875
 C        -3.662515         1.759353        -2.175097
 O        -4.941212         2.158066        -1.527453
 H         0.929002         0.969004        -1.556891
 H         1.493829        -0.429509        -0.711533
 H         0.381079        -0.594568        -2.031153
 H        -3.444290        -0.923559         1.030781
 H        -1.827106         0.264184         2.530440
 H        -4.725820         1.218405         0.988707
 H        -3.344792         2.073217         0.389968
 H        -4.985070         0.077789        -1.399763
 H        -2.890723         2.528058        -1.857025
 H        -3.669396         1.496380        -3.275928
