19
Iteration:  1594
 C        -0.014187        -0.031505        -1.557564
 C        -0.770522         0.028663        -0.394413
 C        -1.597875         0.150968         0.405206
 C        -2.968442         0.111274         1.150573
 O        -2.705920         0.260327         2.526998
 C        -3.928706         1.103035         0.470910
 C        -3.923920         0.922601        -1.190567
 C        -3.248252         1.923847        -1.995323
 O        -4.725221         1.839404        -1.807313
 H        -0.610543         0.488412        -2.412452
 H         1.023067         0.481008        -1.505401
 H         0.262655        -1.068101        -1.957392
 H        -3.260731        -0.931062         1.023323
 H        -2.578298         1.197559         2.669282
 H        -4.867728         0.728328         0.832179
 H        -3.678442         2.155411         0.752575
 H        -3.971442        -0.084031        -1.643785
 H        -2.773940         2.850986        -1.550293
 H        -3.197898         1.658350        -3.094107
