19
Iteration:   324
 C         1.467211        -0.200999         0.044057
 C         0.074377        -0.044624         0.141387
 C        -1.130202         0.074847         0.090952
 C        -2.568128         0.149962        -0.214520
 O        -3.264729        -0.329712         1.008683
 C        -3.019823         1.657035        -0.470820
 C        -4.530273         1.586930        -0.371705
 C        -5.502713         1.041330        -1.370001
 O        -5.220077         2.531977        -1.225966
 H         1.633480        -0.829261        -0.839808
 H         2.102829         0.697565        -0.126114
 H         1.827888        -0.629197         0.986239
 H        -2.730227        -0.573179        -1.076085
 H        -2.586338        -0.819218         1.469140
 H        -2.607924         2.213295         0.393929
 H        -2.689753         2.121954        -1.463631
 H        -5.038093         1.640853         0.731543
 H        -5.133873         0.734179        -2.386312
 H        -6.510087         0.629803        -1.147867
