19
Iteration:  2233
 C         1.400532        -0.394022         0.702069
 C         0.128337         0.118241         0.194966
 C        -1.072066         0.161504        -0.207990
 C        -2.475874         0.267274        -0.453412
 O        -3.030359        -0.070092         0.873146
 C        -3.067415         1.575563        -1.021474
 C        -4.444874         1.777723        -0.441337
 C        -5.646388         0.862532        -0.754988
 O        -5.478528         2.245647        -1.383526
 H         1.248316        -1.323758         1.256898
 H         1.957792        -0.901511        -0.086477
 H         1.953898         0.356861         1.249659
 H        -2.774276        -0.586780        -1.197045
 H        -2.237382        -0.097950         1.509294
 H        -2.511380         2.492763        -0.604330
 H        -3.076516         1.497537        -2.122395
 H        -4.404301         2.023543         0.651086
 H        -5.506542         0.177693        -1.567196
 H        -6.378422         0.729114         0.096333
