19
Iteration:  4592
 C         0.633033        -0.605423        -0.892021
 C        -0.583224        -0.185417        -0.338645
 C        -1.582182         0.090907         0.184953
 C        -2.838910         0.339073         0.955748
 O        -2.583217         0.617510         2.291891
 C        -3.713766         1.375175         0.294228
 C        -4.017218         0.987420        -1.180043
 C        -3.966285         2.139198        -2.127372
 O        -5.295685         1.625348        -1.709012
 H         1.212801         0.285259        -1.329124
 H         1.299356        -1.079812        -0.106528
 H         0.490804        -1.337977        -1.758855
 H        -3.315680        -0.682508         0.932935
 H        -1.771419         0.185494         2.463498
 H        -4.694689         1.297790         0.922897
 H        -3.233129         2.341111         0.475653
 H        -3.802887        -0.090077        -1.447711
 H        -3.611904         3.051394        -1.754429
 H        -3.687162         2.043992        -3.208460
