19
Iteration:  1279
 C         1.033509        -0.171299        -0.826115
 C        -0.231303         0.042710        -0.146747
 C        -1.354117         0.028248         0.222130
 C        -2.763937         0.098463         0.634407
 O        -2.931123        -0.038910         2.069124
 C        -3.305410         1.474853         0.154361
 C        -4.553099         1.198962        -0.819162
 C        -4.444898         1.425682        -2.279037
 O        -5.248013         2.393944        -1.469550
 H         1.079159        -1.275831        -1.073942
 H         1.202626         0.341688        -1.834606
 H         1.933423        -0.092809        -0.137697
 H        -3.238301        -0.790956         0.238099
 H        -2.828050        -0.916017         2.541117
 H        -3.587046         2.003397         1.099666
 H        -2.470397         2.110206        -0.260642
 H        -5.322445         0.492981        -0.422693
 H        -3.518226         1.972164        -2.611135
 H        -4.952780         0.905335        -3.125546
