19
Iteration:  4490charge 0 multiplicity 1
 C         0.370751        -0.458116        -1.320280
 C        -0.700921        -0.097203        -0.370977
 C        -1.658276        -0.003464         0.342342
 C        -2.861050         0.251046         1.173312
 O        -2.771398         0.798944         2.489327
 C        -3.678261         1.201341         0.319354
 C        -3.856042         0.992885        -1.160822
 C        -3.716281         2.147935        -2.126780
 O        -5.062753         1.473641        -1.800942
 H         0.626359         0.395336        -2.089888
 H         1.310181        -0.720224        -0.839401
 H         0.131851        -1.304199        -1.994494
 H        -3.273053        -0.778911         1.163124
 H        -1.974546         0.317750         2.897477
 H        -4.682658         1.450161         0.767458
 H        -3.107886         2.203111         0.430772
 H        -3.514673         0.064308        -1.575888
 H        -3.624305         3.182274        -1.643429
 H        -3.339840         2.002353        -3.115640
