19
Iteration:    32
 C         1.429023        -0.155285         0.100023
 C         0.084464         0.272382        -0.003226
 C        -1.105839         0.132558        -0.035344
 C        -2.524218        -0.007725        -0.146629
 O        -3.188346        -0.607460         0.965181
 C        -3.175676         1.316564        -0.379030
 C        -4.631570         1.532344        -0.377826
 C        -5.547816         1.457822        -1.526675
 O        -5.012381         2.643850        -0.984082
 H         1.385202        -1.111643         0.644131
 H         1.874015        -0.440800        -0.883573
 H         2.080105         0.594599         0.572171
 H        -2.786908        -0.574587        -1.029686
 H        -3.344845        -1.591774         0.936741
 H        -2.721331         1.972894         0.401783
 H        -2.702434         1.557380        -1.411732
 H        -5.090330         1.392682         0.642052
 H        -5.127091         1.235094        -2.583041
 H        -6.684774         1.399628        -1.298406
