19
Iteration:  1402charge 0 multiplicity 1
 C         0.762470        -0.070044        -0.974186
 C        -0.647268        -0.055536        -0.417867
 C        -1.699870         0.036519         0.132923
 C        -2.905000        -0.003367         0.916604
 O        -2.523741         0.166792         2.333882
 C        -3.799428         1.227035         0.423073
 C        -4.252186         1.038815        -1.042656
 C        -3.895061         1.776768        -2.285632
 O        -5.006066         2.157825        -1.578367
 H         0.747855        -0.725850        -1.921011
 H         1.186285         0.928393        -1.342776
 H         1.486509        -0.619333        -0.287486
 H        -3.521047        -0.962935         0.748965
 H        -1.929381         0.978078         2.308376
 H        -4.800069         1.187439         0.939484
 H        -3.433134         2.230007         0.611738
 H        -4.792557         0.097900        -1.324944
 H        -3.198057         2.578076        -2.329281
 H        -4.018977         1.297986        -3.230581
