19
Iteration:  1855
 C         0.953653        -0.292675        -0.664293
 C        -0.448013         0.198459        -0.323539
 C        -1.632037         0.354658        -0.100290
 C        -2.859425         0.231252         0.609843
 O        -2.597909         0.067403         2.025176
 C        -3.834426         1.393578         0.343350
 C        -4.578718         1.016657        -0.789272
 C        -3.988866         1.323956        -2.114847
 O        -5.018076         2.176880        -1.531754
 H         1.693979         0.403335        -0.259167
 H         0.969888        -1.265767        -0.208638
 H         1.203447        -0.416140        -1.713806
 H        -3.219063        -0.724841         0.402690
 H        -1.711680         0.475891         2.177495
 H        -4.557000         1.427908         1.212497
 H        -3.181644         2.361810         0.236032
 H        -5.254351         0.172399        -0.634454
 H        -2.966064         1.797848        -2.364126
 H        -4.460225         0.747283        -3.002543
