19
Iteration:  4188
 C         0.770934         0.046055        -0.990353
 C        -0.499400        -0.055094        -0.256944
 C        -1.589852         0.030619         0.180814
 C        -2.876247         0.144169         0.807772
 O        -2.774551         0.323361         2.286831
 C        -3.547082         1.554711         0.259868
 C        -4.623317         1.278694        -0.768721
 C        -4.164138         0.853062        -2.073199
 O        -4.690733         2.188927        -1.910096
 H         0.533077         0.219298        -2.013399
 H         1.295071         0.910867        -0.641108
 H         1.471287        -0.811140        -1.013095
 H        -3.437929        -0.767816         0.500387
 H        -2.323298        -0.512202         2.599590
 H        -3.568056         2.082986         1.241269
 H        -2.663298         1.949934        -0.153070
 H        -5.622527         0.942597        -0.254421
 H        -3.076246         0.859838        -2.189634
 H        -4.799523         0.303888        -2.741121
