19
Iteration:  1277charge 0 multiplicity 1
 C         1.035452        -0.169624        -0.809052
 C        -0.220508         0.044049        -0.140254
 C        -1.361594         0.033821         0.203978
 C        -2.753407         0.095080         0.640725
 O        -2.919963        -0.039044         2.055152
 C        -3.308442         1.460849         0.154792
 C        -4.557858         1.209830        -0.805535
 C        -4.455274         1.427802        -2.276943
 O        -5.245010         2.389826        -1.474057
 H         1.047722        -1.238289        -1.049677
 H         1.186743         0.288961        -1.784269
 H         1.904136        -0.081248        -0.163749
 H        -3.344205        -0.818442         0.240658
 H        -2.849249        -0.883979         2.514592
 H        -3.532135         1.965538         1.114064
 H        -2.508616         2.117069        -0.366404
 H        -5.352099         0.547134        -0.448842
 H        -3.430071         1.966663        -2.558529
 H        -5.020777         0.904349        -3.124063
