19
Iteration:  2829charge 0 multiplicity 1
 C         0.287934         0.228544        -1.665981
 C        -0.747166         0.253608        -0.580698
 C        -1.621101         0.179357         0.321960
 C        -2.874390        -0.040011         1.107504
 O        -2.930647         0.210556         2.533679
 C        -4.029579         0.864117         0.410467
 C        -3.968950         0.846907        -1.114101
 C        -3.259709         1.906343        -1.861433
 O        -4.683589         1.986260        -1.657523
 H        -0.351483         0.601656        -2.523635
 H         1.161032         0.785397        -1.288520
 H         0.725565        -0.776938        -1.930073
 H        -3.176259        -1.143309         1.014760
 H        -3.061219        -0.694385         2.740232
 H        -4.957034         0.498858         0.733322
 H        -3.949945         1.886493         0.832106
 H        -4.247073        -0.175163        -1.525475
 H        -2.688885         2.573218        -1.262927
 H        -3.048950         2.022712        -2.929071
