19
Iteration:   753charge 0 multiplicity 1
 C         1.476171        -0.197892        -0.002898
 C         0.001047         0.001299         0.046442
 C        -1.182439         0.131874        -0.028624
 C        -2.612965         0.131339        -0.066182
 O        -3.153910        -0.323962         1.189211
 C        -3.110403         1.486435        -0.285356
 C        -4.627674         1.517714        -0.371454
 C        -5.270855         1.181593        -1.641536
 O        -5.220248         2.554786        -1.235072
 H         1.856821         0.694523        -0.491212
 H         1.862700        -0.288182         0.993646
 H         1.672765        -1.099262        -0.566294
 H        -3.043222        -0.539901        -0.817305
 H        -2.536395        -0.991693         1.518455
 H        -2.727966         2.098174         0.500664
 H        -2.837733         1.970124        -1.255080
 H        -5.308431         1.396715         0.417504
 H        -4.755844         0.906440        -2.527826
 H        -6.270195         0.730953        -1.581749
