19
Iteration:  3419
 C         1.365230        -0.066470         0.433535
 C         0.053998        -0.033035         0.002333
 C        -1.123466        -0.013557        -0.309211
 C        -2.563175         0.020633        -0.122172
 O        -3.056662        -0.031980         1.269610
 C        -3.022089         1.435076        -0.599386
 C        -4.476638         1.676584        -0.436421
 C        -5.546167         1.016084        -1.220020
 O        -5.206912         2.393130        -1.537392
 H         1.411010        -0.614969         1.480760
 H         1.730763        -0.737168        -0.378032
 H         1.899287         0.914913         0.409946
 H        -3.160765        -0.788652        -0.535641
 H        -4.063433        -0.182339         1.242801
 H        -2.485211         2.186361        -0.073175
 H        -2.701289         1.565368        -1.616862
 H        -4.948115         1.988910         0.481037
 H        -5.211656         0.208435        -1.893815
 H        -6.489925         0.854646        -0.574553
