19
Iteration:  1005charge 0 multiplicity 1
 C         1.577934        -0.139835         0.189910
 C         0.129578        -0.009230        -0.023412
 C        -1.109824         0.087605         0.026120
 C        -2.599939         0.081255        -0.040819
 O        -3.337954        -0.334933         1.082457
 C        -3.030231         1.381530        -0.675461
 C        -4.531399         1.630059        -0.410832
 C        -5.577828         1.197943        -1.271190
 O        -5.181901         2.543902        -1.320793
 H         1.803326         0.071310         1.266511
 H         1.902287        -1.161999        -0.114767
 H         2.198753         0.558882        -0.420923
 H        -2.681430        -0.886158        -0.645862
 H        -3.020345        -0.018269         1.976754
 H        -2.376870         2.186989        -0.218151
 H        -2.806615         1.296516        -1.797992
 H        -5.008572         1.734523         0.549440
 H        -5.470080         0.743697        -2.231720
 H        -6.524614         0.973781        -0.832283
