19
Iteration:  3515charge 0 multiplicity 1
 C         1.470708        -0.415144         0.610681
 C         0.137149         0.065261         0.115233
 C        -1.034573         0.106439        -0.019726
 C        -2.436974         0.300758        -0.282629
 O        -3.207791         0.022781         0.852241
 C        -3.061943         1.575322        -0.900900
 C        -4.412571         1.793718        -0.444920
 C        -5.650775         0.972442        -0.775127
 O        -5.355149         2.123880        -1.514001
 H         1.248398        -1.235286         1.221063
 H         1.882043        -0.699585        -0.369680
 H         1.946510         0.345038         1.152831
 H        -2.675391        -0.470729        -1.061300
 H        -3.490795        -0.890730         1.015987
 H        -2.459624         2.580495        -0.801026
 H        -2.959523         1.534082        -2.017382
 H        -4.537520         2.340014         0.457394
 H        -5.533211         0.047008        -1.313318
 H        -6.541125         0.918597        -0.089311
