19
Iteration:  4549charge 0 multiplicity 1
 C         0.675822        -0.583537        -1.298128
 C        -0.475708        -0.310911        -0.279399
 C        -1.473792         0.017154         0.318663
 C        -2.865762         0.212243         1.121490
 O        -2.790816         0.799377         2.419675
 C        -3.834233         1.291497         0.389408
 C        -3.902606         1.151559        -1.137763
 C        -3.969056         2.142447        -2.198680
 O        -5.172170         1.579413        -1.783194
 H         0.918489         0.411170        -1.749088
 H         1.603960        -0.944616        -0.738697
 H         0.316358        -1.323495        -2.081491
 H        -3.353544        -0.780470         1.109986
 H        -2.404567         0.331299         3.101337
 H        -4.897915         1.246743         0.753927
 H        -3.401097         2.242298         0.498448
 H        -3.754894         0.134428        -1.608505
 H        -3.767845         3.107976        -1.895478
 H        -3.698027         2.058890        -3.274769
