19
Iteration:  3565charge 0 multiplicity 1
 C         1.409741        -0.351565         0.455753
 C         0.053635        -0.088031         0.273677
 C        -1.106127         0.174399         0.006425
 C        -2.516292         0.220911        -0.321695
 O        -3.122944        -0.192458         0.951504
 C        -2.883968         1.622187        -0.845849
 C        -4.441942         1.975960        -0.552515
 C        -5.529839         0.931642        -0.802293
 O        -5.496414         2.180742        -1.588819
 H         1.456339        -1.325457         1.033753
 H         1.906625        -0.355002        -0.552293
 H         1.707682         0.474345         1.195747
 H        -2.807545        -0.577717        -1.004832
 H        -2.773401         0.428591         1.583574
 H        -2.130026         2.281880        -0.453103
 H        -2.880591         1.586377        -1.955502
 H        -4.718258         2.693686         0.290905
 H        -5.290200        -0.049445        -1.212762
 H        -6.387705         0.792415        -0.056391
