19
Iteration:  3284
 C         1.413980         0.003085        -0.397862
 C        -0.038160         0.076228        -0.088672
 C        -1.195068         0.111757         0.211009
 C        -2.650079        -0.005460         0.445851
 O        -3.373531        -0.237075         1.691528
 C        -3.113176         1.267597        -0.322687
 C        -4.649758         1.328996        -0.621572
 C        -5.048879         1.263179        -2.023276
 O        -5.048298         2.540184        -1.280789
 H         2.205464         0.337718         0.327033
 H         1.575871        -1.160037        -0.598822
 H         1.789609         0.646311        -1.260611
 H        -2.979255        -0.889069        -0.148806
 H        -3.660622         0.604146         2.061113
 H        -2.680266         2.129007         0.246798
 H        -2.628069         1.407011        -1.318424
 H        -5.272661         0.874868         0.183546
 H        -4.184312         1.136598        -2.806167
 H        -6.044461         1.110304        -2.408980
