19
Iteration:  3965charge 0 multiplicity 1
 C         1.306149        -0.455795        -0.266715
 C        -0.138499        -0.080578        -0.132802
 C        -1.315119         0.080628         0.060616
 C        -2.674980         0.264639         0.461125
 O        -2.671282         0.402556         1.913410
 C        -3.501650         1.551299        -0.026674
 C        -4.772343         1.095561        -0.813378
 C        -4.718130         1.302543        -2.270062
 O        -5.403468         2.207916        -1.451021
 H         1.541623        -1.179423        -1.074596
 H         2.003604         0.389887        -0.477960
 H         1.739427        -0.922767         0.578061
 H        -3.288697        -0.611113         0.131761
 H        -1.818230         0.026320         2.120441
 H        -3.877285         2.032355         0.862749
 H        -2.844548         2.273567        -0.574801
 H        -5.375735         0.299884        -0.279816
 H        -3.778397         1.776038        -2.673182
 H        -5.333327         0.654146        -2.883685
