19
Iteration:   556
 C         1.308440         0.033750        -0.588511
 C        -0.098570        -0.020043        -0.220810
 C        -1.238647        -0.071637         0.227386
 C        -2.756220         0.006662         0.388710
 O        -3.352518        -0.057898         1.662857
 C        -3.168872         1.362231        -0.081898
 C        -4.508549         1.335140        -0.642319
 C        -4.738650         1.421273        -2.073030
 O        -5.155055         2.378963        -1.125672
 H         1.343145         0.426490        -1.584564
 H         1.892548         0.592265         0.122081
 H         1.628574        -0.989113        -0.531868
 H        -3.162537        -0.729236        -0.326446
 H        -2.802766        -0.761744         2.135243
 H        -3.104502         1.982184         0.746737
 H        -2.678736         1.790109        -0.940003
 H        -5.111915         0.664060         0.128800
 H        -3.892043         1.787896        -2.692097
 H        -5.583561         0.886826        -2.485367
