19
Iteration:  1808
 C         0.906053        -0.210219        -0.731273
 C        -0.501868         0.037467        -0.498130
 C        -1.639529         0.163107        -0.053381
 C        -2.856592         0.144391         0.832366
 O        -2.333438         0.166222         2.202376
 C        -4.021996         1.177189         0.526892
 C        -4.592871         1.132965        -0.974476
 C        -3.840494         1.467923        -2.172880
 O        -5.086561         2.253690        -1.716090
 H         1.484286         0.700811        -0.618845
 H         1.181744        -1.061498        -0.119416
 H         1.078367        -0.532079        -1.755995
 H        -3.437241        -0.757072         0.841136
 H        -2.343887         1.151659         2.412651
 H        -4.927343         0.974704         1.178495
 H        -3.657886         2.225250         0.656421
 H        -5.331359         0.287223        -1.160238
 H        -2.887852         2.077262        -1.963874
 H        -3.852318         0.856141        -3.131735
