19
Iteration:  1839
 C         0.839005        -0.274324        -0.619877
 C        -0.441824         0.188034        -0.355782
 C        -1.627379         0.334463        -0.163501
 C        -2.871620         0.174990         0.680127
 O        -2.445448         0.090180         2.071355
 C        -3.853755         1.289117         0.487213
 C        -4.580697         1.067352        -0.890990
 C        -3.941753         1.344593        -2.179816
 O        -5.059913         2.206405        -1.586011
 H         1.727591         0.356080        -0.417493
 H         1.085415        -1.263512        -0.162078
 H         0.957196        -0.403375        -1.725337
 H        -3.583150        -0.709343         0.396979
 H        -2.023314         0.930740         2.225241
 H        -4.551273         1.462785         1.290693
 H        -3.408937         2.221688         0.421850
 H        -5.371851         0.268710        -0.971046
 H        -2.953922         1.738492        -1.978007
 H        -4.041720         0.758646        -3.063941
