19
Iteration:  1757
 C         0.727153        -0.041349        -1.133055
 C        -0.566870        -0.062617        -0.330728
 C        -1.702192        -0.069576         0.117613
 C        -2.906048        -0.009419         0.839133
 O        -2.708013         0.529099         2.307715
 C        -3.854110         1.093913         0.325324
 C        -4.401546         0.942854        -1.080924
 C        -3.713255         1.725615        -2.104879
 O        -4.906806         2.129386        -1.482059
 H         0.969478         1.040935        -1.260538
 H         1.462976        -0.535931        -0.477043
 H         0.796739        -0.560766        -2.103640
 H        -3.471187        -0.958513         1.007073
 H        -1.715076         0.664783         2.341845
 H        -4.720215         1.075660         0.988193
 H        -3.190177         2.030073         0.360726
 H        -4.736902        -0.038124        -1.378165
 H        -2.644431         1.968487        -1.843962
 H        -3.906425         1.421660        -3.148131
