19
Iteration:  4616charge 0 multiplicity 1
 C         0.753164        -0.623608        -0.778782
 C        -0.525121        -0.189407        -0.349309
 C        -1.700530         0.164627         0.058939
 C        -2.911393         0.262253         0.955153
 O        -2.482905         0.553220         2.282067
 C        -3.820339         1.387870         0.228807
 C        -4.067653         1.058839        -1.143384
 C        -4.006172         2.106932        -2.253687
 O        -5.271511         1.683502        -1.581029
 H         1.406015         0.208968        -1.075143
 H         1.340346        -1.118187         0.123545
 H         0.813891        -1.351175        -1.652421
 H        -3.409442        -0.730083         1.015131
 H        -1.521381         0.161891         2.363963
 H        -4.670174         1.566971         0.887361
 H        -3.168588         2.216394         0.328680
 H        -3.931729        -0.062626        -1.226457
 H        -3.657932         3.130943        -2.114274
 H        -3.794592         1.772327        -3.201786
