19
Iteration:  1415
 C         0.712116        -0.061052        -0.971098
 C        -0.644891        -0.129119        -0.518376
 C        -1.681046         0.008515         0.017835
 C        -2.939429         0.147203         0.949984
 O        -2.511830         0.214008         2.286226
 C        -3.937156         1.141380         0.402721
 C        -4.215752         0.988533        -1.036745
 C        -3.735472         1.772741        -2.167726
 O        -5.040983         2.169295        -1.551524
 H         0.940942        -0.591733        -2.006759
 H         1.001285         1.065166        -1.021038
 H         1.364897        -0.524741        -0.149673
 H        -3.436584        -0.854225         1.010258
 H        -2.025673         1.028987         2.396527
 H        -4.851893         1.105669         1.014876
 H        -3.465617         2.135698         0.539807
 H        -4.704622         0.012795        -1.190972
 H        -2.805039         2.339572        -2.070479
 H        -3.862100         1.318000        -3.118060
