19
Iteration:  2592
 C         1.206476        -0.193622        -0.513830
 C        -0.117211         0.126302        -0.106807
 C        -1.320821         0.173581         0.189271
 C        -2.719530         0.036294         0.392629
 O        -2.909653        -0.273757         1.844333
 C        -3.370226         1.441258         0.116739
 C        -4.539909         1.303063        -0.822572
 C        -4.649558         1.589973        -2.299286
 O        -5.405855         2.263794        -1.298077
 H         1.274891        -0.641614        -1.524189
 H         1.872546         0.674616        -0.561346
 H         1.808902        -0.734097         0.257537
 H        -3.187552        -0.911838         0.011600
 H        -2.103896         0.083567         2.235595
 H        -3.707270         1.764269         1.095587
 H        -2.596343         2.051373        -0.202274
 H        -5.111567         0.442856        -0.468662
 H        -3.927076         2.317235        -2.723102
 H        -5.152597         0.978584        -3.056100
