19
Iteration:  4436charge 0 multiplicity 1
 C         0.241031        -0.280561        -1.259325
 C        -0.785402        -0.264912        -0.366636
 C        -1.731528         0.149537         0.286233
 C        -2.897811         0.288911         1.137710
 O        -2.566549         0.538389         2.545166
 C        -3.792541         1.380691         0.408787
 C        -3.890191         0.961790        -1.073073
 C        -3.608633         1.933509        -2.212484
 O        -4.956526         1.559733        -1.882899
 H         0.238680         0.642053        -1.999640
 H         1.248659        -0.311636        -0.837552
 H         0.209048        -1.208987        -1.878403
 H        -3.397042        -0.676489         1.061088
 H        -1.768328         1.095330         2.361104
 H        -4.851485         1.456539         0.753005
 H        -3.409762         2.423498         0.417086
 H        -3.763946        -0.092235        -1.152337
 H        -3.286496         2.984337        -1.914253
 H        -3.256408         1.665642        -3.170704
