19
Iteration:  4545
 C         0.649145        -0.569993        -1.292694
 C        -0.502295        -0.321124        -0.265478
 C        -1.503865         0.018936         0.335857
 C        -2.839591         0.221236         1.081998
 O        -2.795062         0.819890         2.443772
 C        -3.800012         1.280950         0.342227
 C        -3.912273         1.101067        -1.134855
 C        -3.962262         2.157413        -2.190684
 O        -5.163311         1.579914        -1.770799
 H         0.905126         0.433505        -1.846620
 H         1.541250        -0.922810        -0.825270
 H         0.312420        -1.273848        -2.072812
 H        -3.240084        -0.826600         1.075979
 H        -2.389736         0.177703         3.157831
 H        -4.875964         1.128654         0.711622
 H        -3.401903         2.352222         0.612718
 H        -3.659976         0.156030        -1.572522
 H        -3.807820         3.288462        -1.989906
 H        -3.587977         2.018260        -3.247250
