19
Iteration:  1710
 C         0.394949         0.080440        -1.380205
 C        -0.669063        -0.087174        -0.368436
 C        -1.575154        -0.126296         0.411364
 C        -2.882146        -0.001058         1.087131
 O        -2.698960         0.456907         2.459321
 C        -3.771946         1.050253         0.396103
 C        -4.143897         1.042317        -1.139631
 C        -3.552912         1.848403        -2.252410
 O        -4.942598         2.013886        -1.685378
 H         0.408788         1.041746        -1.842034
 H         1.335313        -0.204479        -0.955708
 H         0.329235        -0.650674        -2.162934
 H        -3.479916        -0.877329         1.095450
 H        -2.647514        -0.346967         3.027320
 H        -4.837879         0.934983         0.801970
 H        -3.248649         2.022725         0.632278
 H        -4.667631         0.073299        -1.314251
 H        -3.118598         2.868192        -2.099026
 H        -3.386157         1.515587        -3.322849
