19
Iteration:  1681
 C         0.268141         0.082826        -1.546010
 C        -0.710945        -0.127165        -0.457341
 C        -1.623843         0.019168         0.297311
 C        -2.942318         0.159873         1.051748
 O        -2.834717         0.357140         2.516353
 C        -3.756385         1.236321         0.439740
 C        -3.873622         0.898837        -1.016594
 C        -3.468933         1.863201        -2.059481
 O        -4.859869         1.830722        -1.728519
 H         0.224000         1.116627        -2.032702
 H         1.227418         0.098720        -0.929186
 H         0.249706        -0.780981        -2.282450
 H        -3.700453        -0.726114         0.973310
 H        -2.909519        -0.457937         2.979745
 H        -4.766339         1.280701         0.742415
 H        -3.280487         2.242385         0.610684
 H        -4.223699        -0.117717        -1.196586
 H        -3.189067         2.866304        -1.653881
 H        -3.202249         1.459421        -3.040812
