19
Iteration:  2040
 C         1.192515         0.126224        -0.581691
 C        -0.023381        -0.074323         0.107593
 C        -1.228144        -0.035973         0.325226
 C        -2.645602         0.018514         0.450551
 O        -3.033904        -0.018472         1.839924
 C        -3.225546         1.320280        -0.269895
 C        -4.657833         1.361169        -0.611140
 C        -5.060768         1.156493        -2.055284
 O        -4.990688         2.421353        -1.518567
 H         2.046816         0.275836         0.100823
 H         1.278232        -0.786698        -1.192757
 H         1.191309         1.030188        -1.206702
 H        -3.178124        -0.852161        -0.046520
 H        -3.707127         0.689428         1.986989
 H        -2.904114         2.151695         0.330194
 H        -2.687271         1.326381        -1.276102
 H        -5.355786         1.130869         0.203627
 H        -4.362081         0.760996        -2.787059
 H        -6.125451         0.948054        -2.354204
