19
Iteration:  2618charge 0 multiplicity 1
 C         1.312366        -0.207236        -0.600992
 C        -0.127300        -0.002034        -0.265139
 C        -1.222918         0.168084         0.178810
 C        -2.674199         0.173660         0.601388
 O        -2.888912        -0.194955         1.927738
 C        -3.648993         1.443129         0.221716
 C        -4.566425         1.097194        -0.950471
 C        -4.539460         1.729488        -2.292203
 O        -5.448947         2.269636        -1.336439
 H         1.661754        -0.674667        -1.525267
 H         2.006550         0.630191        -0.284560
 H         1.697560        -0.872980         0.194343
 H        -3.028966        -0.716276         0.106921
 H        -2.152203        -0.738475         2.194893
 H        -4.188271         1.744821         1.106651
 H        -2.983787         2.302271        -0.048457
 H        -5.175750         0.201233        -0.825662
 H        -3.802318         2.474237        -2.630002
 H        -5.032287         1.219546        -3.188096
