19
Iteration:  3210charge 0 multiplicity 1
 C         1.320596         0.012486        -0.476291
 C        -0.081254        -0.130028        -0.039005
 C        -1.275173        -0.127121         0.143846
 C        -2.740542         0.107689         0.503207
 O        -2.964179        -0.062042         1.999170
 C        -3.253507         1.401887        -0.109241
 C        -4.622197         1.248994        -0.881766
 C        -4.765302         1.512953        -2.303040
 O        -5.361200         2.393737        -1.312891
 H         1.917784         0.821874        -0.011150
 H         1.934909        -0.919975        -0.524100
 H         1.306836         0.465637        -1.453208
 H        -3.304095        -0.766715         0.164502
 H        -3.131049        -0.999594         2.001107
 H        -3.393000         2.074699         0.688775
 H        -2.495128         1.908606        -0.663247
 H        -5.246461         0.465246        -0.413088
 H        -3.813926         1.962887        -2.760682
 H        -5.562117         0.951118        -2.775657
