19
Iteration:  4066charge 0 multiplicity 1
 C         1.115435        -0.271375        -0.688089
 C        -0.196408        -0.075475        -0.143673
 C        -1.342576         0.106598         0.192107
 C        -2.761081         0.227034         0.577636
 O        -2.928859         0.405567         2.008033
 C        -3.503270         1.541868         0.170978
 C        -4.608242         1.176155        -0.741776
 C        -4.471682         1.069133        -2.202170
 O        -5.124429         2.192409        -1.610696
 H         1.079403        -0.658472        -1.749469
 H         1.718195         0.602009        -0.693769
 H         1.737697        -1.049416        -0.256137
 H        -3.404124        -0.568695         0.110165
 H        -2.124691        -0.154493         2.339264
 H        -3.775788         2.061586         1.081075
 H        -2.900383         2.268643        -0.272268
 H        -5.501513         0.680431        -0.174585
 H        -3.617317         1.238064        -2.816121
 H        -5.140766         0.331204        -2.628594
