19
Iteration:   707charge 0 multiplicity 1
 C         1.400141        -0.102471        -0.064188
 C        -0.017911        -0.249026        -0.126034
 C        -1.200324        -0.038547        -0.121851
 C        -2.650564         0.079479         0.044519
 O        -2.931526        -0.282430         1.418423
 C        -3.230787         1.648729        -0.028817
 C        -4.666759         1.558179        -0.431778
 C        -5.055911         1.238833        -1.810456
 O        -5.395617         2.580710        -1.358719
 H         1.632938         0.770451        -0.729220
 H         1.583467         0.152277         1.016740
 H         1.935599        -1.057389        -0.307383
 H        -3.135411        -0.431440        -0.798387
 H        -2.655770        -1.227619         1.617018
 H        -3.146101         2.139601         1.008644
 H        -2.404740         2.034948        -0.703886
 H        -5.383812         1.116859         0.312911
 H        -4.291501         1.146022        -2.590096
 H        -5.836491         0.559819        -2.059122
