19
Iteration:   954charge 0 multiplicity 1
 C         1.432724         0.017996         0.456695
 C         0.006053        -0.194895         0.178203
 C        -1.085166        -0.193708        -0.383431
 C        -2.583318        -0.087018        -0.316281
 O        -2.919628        -0.280390         1.142172
 C        -3.129803         1.389397        -0.636693
 C        -4.565250         1.721884        -0.418447
 C        -5.653253         1.246594        -1.191839
 O        -5.260717         2.637552        -1.335276
 H         1.536409         0.647083         1.300976
 H         1.998905        -0.890760         0.625503
 H         1.826211         0.583763        -0.363139
 H        -2.979058        -0.855846        -0.882411
 H        -2.170063         0.259454         1.505204
 H        -2.561423         2.202815        -0.243389
 H        -2.804106         1.306145        -1.633014
 H        -4.931977         2.018281         0.640809
 H        -5.461230         0.660730        -2.166396
 H        -6.627956         1.136609        -0.706732
