19
Iteration:  3762charge 0 multiplicity 1
 C         1.360050        -0.142659        -0.376731
 C        -0.050144         0.047548         0.069533
 C        -1.253229        -0.007060         0.377916
 C        -2.701801        -0.016618         0.425861
 O        -3.113684         0.188729         1.668573
 C        -3.135198         1.303974        -0.506879
 C        -4.567015         1.512644        -0.571288
 C        -5.151335         1.065754        -1.897126
 O        -5.124366         2.483606        -1.540499
 H         1.370963        -1.133828        -0.720195
 H         1.462410         0.502956        -1.173254
 H         1.997632         0.057990         0.485892
 H        -3.080185        -0.991791         0.008822
 H        -2.814934        -0.592923         2.130502
 H        -2.575363         2.162050         0.055922
 H        -2.798001         1.085047        -1.557454
 H        -5.178011         1.366945         0.325120
 H        -4.438622         0.536749        -2.597454
 H        -6.149641         0.700761        -1.989585
