19
Iteration:   869charge 0 multiplicity 1
 C         1.467417         0.046685         0.438884
 C         0.078494        -0.129223         0.003752
 C        -1.148268        -0.203970        -0.216219
 C        -2.613321        -0.029683        -0.237251
 O        -3.093655        -0.148153         1.089905
 C        -3.087295         1.367658        -0.812626
 C        -4.538392         1.578279        -0.427648
 C        -5.584670         1.216590        -1.250150
 O        -5.219662         2.620252        -1.122773
 H         1.615906         1.046353         0.946098
 H         1.780903        -0.723922         1.208588
 H         2.223235        -0.097896        -0.377479
 H        -2.993129        -0.837936        -1.004982
 H        -2.431294        -0.538837         1.634908
 H        -2.502394         2.220768        -0.351207
 H        -2.905501         1.357444        -1.911061
 H        -4.627875         1.660397         0.670056
 H        -5.491281         0.753092        -2.286014
 H        -6.543139         1.046805        -0.737274
