19
Iteration:  4777charge 0 multiplicity 1
 C         0.936268        -0.378842        -0.680222
 C        -0.336182        -0.219887        -0.170782
 C        -1.506037         0.017901         0.112738
 C        -2.797453         0.237415         0.725639
 O        -2.757328         0.264776         2.180421
 C        -3.510656         1.469160         0.148465
 C        -4.552420         1.195402        -0.910041
 C        -4.273398         1.393093        -2.353182
 O        -5.100316         2.328277        -1.557098
 H         1.431817         0.604584        -0.667306
 H         1.441842        -1.147446        -0.122685
 H         0.776651        -0.661542        -1.737326
 H        -3.466496        -0.614655         0.592955
 H        -1.793295         0.197413         2.372205
 H        -4.074668         1.996558         1.016714
 H        -2.852188         2.261764        -0.241910
 H        -5.220000         0.415848        -0.552840
 H        -3.253363         1.766889        -2.702273
 H        -4.783345         0.720939        -3.120877
