19
Iteration:  1387
 C         0.720910        -0.143530        -1.022524
 C        -0.502787         0.087901        -0.310808
 C        -1.583837        -0.051260         0.175136
 C        -2.910287         0.055250         0.919865
 O        -2.615778         0.104284         2.321233
 C        -3.723389         1.218882         0.396465
 C        -4.304187         1.133011        -1.049417
 C        -3.911752         1.781020        -2.404802
 O        -5.126213         2.153929        -1.566526
 H         0.602487        -0.826472        -1.797074
 H         1.091696         0.814308        -1.246195
 H         1.470962        -0.398467        -0.319145
 H        -3.376635        -0.934539         0.877188
 H        -1.823052         0.658160         2.485772
 H        -4.507659         1.345224         1.156073
 H        -2.941920         2.022697         0.427298
 H        -4.744125         0.112793        -1.127914
 H        -3.020206         2.451038        -2.369845
 H        -4.289683         1.237056        -3.324771
