19
Iteration:  1363
 C         0.821487        -0.163006        -1.078940
 C        -0.365937         0.094539        -0.233640
 C        -1.504233        -0.089535         0.298902
 C        -2.855742         0.104045         0.809370
 O        -2.827730         0.058540         2.296032
 C        -3.579386         1.411812         0.203306
 C        -4.382858         1.013790        -0.965321
 C        -4.038466         1.755753        -2.277218
 O        -5.186051         2.191359        -1.569017
 H         0.501186        -0.940036        -1.722267
 H         1.115850         0.754508        -1.520574
 H         1.707304        -0.376262        -0.544613
 H        -3.339110        -0.818617         0.630493
 H        -1.964035         0.229175         2.623486
 H        -4.159751         1.486667         1.105739
 H        -2.738246         2.145303         0.138592
 H        -4.728936        -0.004533        -0.812160
 H        -3.131669         2.431680        -2.115067
 H        -4.182816         1.156284        -3.208800
