19
Iteration:   943charge 0 multiplicity 1
 C         1.355259         0.030820         0.487773
 C        -0.056847        -0.139519         0.174814
 C        -1.145290        -0.167849        -0.464374
 C        -2.624272        -0.031693        -0.251606
 O        -2.853950        -0.288561         1.149077
 C        -3.087218         1.339681        -0.791031
 C        -4.555868         1.750448        -0.398472
 C        -5.662764         1.201546        -1.195449
 O        -5.178466         2.617807        -1.284666
 H         1.480382         0.644614         1.346777
 H         1.826637        -0.905382         0.768614
 H         1.885062         0.473596        -0.340073
 H        -3.159461        -0.791952        -0.718051
 H        -2.075967         0.002136         1.711381
 H        -2.420655         1.905729        -0.168506
 H        -3.057558         1.715526        -1.757929
 H        -4.676534         1.845714         0.751134
 H        -5.272379         0.585956        -2.086134
 H        -6.680795         1.044212        -0.834752
