19
Iteration:  3468charge 0 multiplicity 1
 C         1.535214        -0.263148         0.560154
 C         0.058661        -0.155124         0.234751
 C        -1.055922         0.035972        -0.229549
 C        -2.449964         0.254344        -0.260055
 O        -3.014141        -0.145264         1.075273
 C        -3.050720         1.563452        -0.833627
 C        -4.490794         1.835173        -0.481879
 C        -5.576078         0.956305        -0.951209
 O        -5.502469         2.315873        -1.541353
 H         1.578612        -0.770738         1.465040
 H         2.158212        -0.672991        -0.247837
 H         1.739866         0.758165         0.890386
 H        -2.985511        -0.536168        -0.801709
 H        -3.926718         0.056387         0.957268
 H        -2.531036         2.563384        -0.634186
 H        -2.778294         1.464355        -1.903604
 H        -4.713897         2.410332         0.447084
 H        -5.459683         0.093671        -1.631276
 H        -6.453082         0.769802        -0.305844
