19
Iteration:  2263charge 0 multiplicity 1
 C         1.433244        -0.334627         0.756940
 C         0.069584        -0.071094         0.318099
 C        -0.965953         0.262034        -0.318733
 C        -2.399975         0.214882        -0.487092
 O        -3.013544        -0.020616         0.790660
 C        -3.008386         1.492922        -1.003223
 C        -4.503385         1.851102        -0.519423
 C        -5.748536         0.929305        -0.651356
 O        -5.532244         2.220267        -1.337880
 H         1.505100        -1.322621         1.213362
 H         2.100030        -0.473092        -0.086695
 H         1.748962         0.565416         1.266590
 H        -2.619986        -0.685737        -1.087987
 H        -2.709849        -0.821567         1.188160
 H        -2.168986         2.296885        -0.802576
 H        -2.920490         1.401649        -2.076537
 H        -4.438176         2.297190         0.512783
 H        -5.722438         0.149016        -1.436112
 H        -6.564763         0.867346         0.157531
