19
Iteration:   459charge 0 multiplicity 1
 C         1.519154        -0.017742        -0.301013
 C        -0.002447        -0.087545        -0.204850
 C        -1.197182         0.042567         0.140473
 C        -2.754931        -0.049161         0.314730
 O        -2.880145        -0.357312         1.652161
 C        -3.428869         1.419020        -0.119155
 C        -4.843685         1.466890        -0.567109
 C        -5.168255         1.346712        -1.953739
 O        -5.017078         2.604617        -1.405215
 H         1.858505         0.022692        -1.359113
 H         1.978504         0.796475         0.274198
 H         1.903853        -1.001973         0.076523
 H        -3.003216        -0.810683        -0.470726
 H        -3.800848        -0.084421         1.954124
 H        -3.223132         2.091392         0.710572
 H        -2.684277         1.619162        -0.921984
 H        -5.580296         1.522937         0.192379
 H        -4.343118         0.975969        -2.634659
 H        -6.220990         1.053095        -2.214300
