19
Iteration:  3395
 C         1.465429        -0.020798         0.284577
 C         0.080586         0.004279        -0.125614
 C        -1.155700        -0.149002        -0.083060
 C        -2.697548         0.089273        -0.038355
 O        -3.089939        -0.094525         1.367379
 C        -3.044339         1.445447        -0.563485
 C        -4.512593         1.645144        -0.456292
 C        -5.576903         1.034820        -1.361099
 O        -5.095993         2.439822        -1.525971
 H         1.381795        -0.249055         1.406485
 H         2.133683        -0.770548        -0.303375
 H         1.851716         1.011717         0.240136
 H        -3.349292        -0.660143        -0.530542
 H        -3.727693        -0.798124         1.632378
 H        -2.437871         2.307982        -0.118027
 H        -2.712536         1.435610        -1.623220
 H        -5.041470         1.882300         0.425742
 H        -5.113334         0.463388        -2.144151
 H        -6.702446         0.859011        -1.080058
