19
Iteration:  2947charge 0 multiplicity 1
 C         0.270789         0.522248        -1.440761
 C        -0.865929         0.068008        -0.612807
 C        -1.689581        -0.201058         0.282771
 C        -2.970688        -0.072064         1.018627
 O        -2.781526         0.250456         2.441055
 C        -3.853643         1.094503         0.456276
 C        -4.019343         0.824426        -1.057927
 C        -3.248311         1.766010        -1.925815
 O        -4.701215         1.979561        -1.692740
 H         0.041851         1.502850        -1.885453
 H         1.148864         0.335908        -0.774311
 H         0.410172        -0.247717        -2.211441
 H        -3.458569        -1.045410         0.846774
 H        -3.651844         0.276354         2.897851
 H        -4.845410         1.081168         1.070848
 H        -3.381447         2.024915         0.747903
 H        -4.242143        -0.212369        -1.407155
 H        -2.592509         2.581677        -1.546892
 H        -3.159297         1.575776        -3.071271
