19
Iteration:   146charge 0 multiplicity 1
 C         1.378805        -0.034206         0.443113
 C        -0.043059         0.140373        -0.027426
 C        -1.197901        -0.162240        -0.283585
 C        -2.678080        -0.014118        -0.421992
 O        -3.235923        -0.400090         0.827420
 C        -2.973522         1.547878        -0.600583
 C        -4.386228         1.756949        -0.211466
 C        -5.363864         1.084230        -1.084931
 O        -5.125179         2.532536        -1.093488
 H         1.573654        -1.102556         0.594228
 H         2.118064         0.334615        -0.255151
 H         1.530344         0.503168         1.377796
 H        -3.035028        -0.585689        -1.262934
 H        -4.068001        -0.837633         0.553628
 H        -2.413009         2.246631         0.019085
 H        -2.899928         1.865171        -1.616340
 H        -4.521759         1.787734         0.908183
 H        -5.065462         0.594009        -1.935341
 H        -6.267552         0.841550        -0.636161
