19
Iteration:  4108
 C         0.987496        -0.143977        -0.880691
 C        -0.286865        -0.003033        -0.148958
 C        -1.438899         0.153869         0.276304
 C        -2.819877         0.196161         0.803157
 O        -2.822383         0.228683         2.307644
 C        -3.431873         1.471701         0.093390
 C        -4.613673         1.284647        -0.825699
 C        -4.497789         1.024863        -2.243706
 O        -4.976459         2.220161        -1.818950
 H         0.745871        -0.312656        -1.954461
 H         1.592610         0.719503        -0.762679
 H         1.453137        -0.948014        -0.445260
 H        -3.377394        -0.732203         0.399712
 H        -2.224876        -0.465950         2.682822
 H        -3.473488         2.262911         0.915879
 H        -2.546032         1.816107        -0.633328
 H        -5.440378         0.772798        -0.207273
 H        -3.527033         1.196822        -2.755064
 H        -5.194762         0.302920        -2.663986
