19
Iteration:  2761
 C         0.725048         0.190940        -1.084192
 C        -0.564230        -0.021493        -0.417738
 C        -1.732905        -0.167662        -0.008583
 C        -2.893682        -0.053482         0.900247
 O        -2.565458         0.176728         2.278304
 C        -3.955502         1.104627         0.384697
 C        -4.185067         0.984646        -1.097697
 C        -3.624754         2.045689        -1.904860
 O        -5.097414         1.972198        -1.612098
 H         0.501512         0.269784        -2.175662
 H         1.292391         0.960969        -0.496870
 H         1.473082        -0.647545        -1.110561
 H        -3.461365        -1.047157         0.765340
 H        -3.083348         0.810249         2.817925
 H        -4.873234         1.051841         0.892416
 H        -3.629207         2.086364         0.543547
 H        -4.438983        -0.001706        -1.508808
 H        -2.946652         2.818397        -1.411564
 H        -3.440379         1.891639        -2.959377
