19
Iteration:  4379charge 0 multiplicity 1
 C         0.444900        -0.275503        -1.298084
 C        -0.712165        -0.017465        -0.479363
 C        -1.677379        -0.058447         0.280072
 C        -2.858340         0.222989         1.138883
 O        -2.717288         0.677952         2.370494
 C        -3.785151         1.207372         0.518044
 C        -4.180825         0.959831        -0.978229
 C        -3.526472         1.586179        -2.119591
 O        -4.921455         1.929807        -1.861273
 H         0.396507         0.446849        -2.179765
 H         1.312661        -0.075392        -0.600470
 H         0.341322        -1.321448        -1.600418
 H        -3.407061        -0.722270         1.206468
 H        -2.100314         1.358410         2.170555
 H        -4.692981         1.148860         1.108085
 H        -3.327451         2.272959         0.491936
 H        -4.488643        -0.053584        -1.167070
 H        -2.860290         2.440360        -2.025316
 H        -3.396287         0.876114        -3.009711
