19
Iteration:  3804charge 0 multiplicity 1
 C         1.325220        -0.179086        -0.522066
 C        -0.023432        -0.101196         0.075669
 C        -1.222097         0.035629         0.426780
 C        -2.687967         0.093396         0.457076
 O        -3.140344         0.280148         1.824966
 C        -3.125143         1.377545        -0.340274
 C        -4.578928         1.170562        -0.783160
 C        -5.176989         1.166761        -2.160343
 O        -5.096405         2.413374        -1.392236
 H         1.449974        -1.166847        -1.085384
 H         1.485121         0.647469        -1.203828
 H         2.051221        -0.158607         0.349088
 H        -3.209281        -0.690213        -0.058230
 H        -2.574612         0.226038         2.556765
 H        -3.054529         2.352468         0.346644
 H        -2.367861         1.663114        -1.077552
 H        -5.358580         0.786149        -0.069659
 H        -4.547322         1.213815        -3.015883
 H        -6.209810         0.867121        -2.229172
