19
Iteration:  1213
 C         1.293029        -0.122006        -0.362050
 C        -0.170372        -0.266730        -0.370068
 C        -1.353089         0.084888        -0.079219
 C        -2.715815         0.060059         0.441574
 O        -2.832080        -0.052152         1.918942
 C        -3.484954         1.453726         0.185560
 C        -4.716779         1.350413        -0.667797
 C        -4.833223         1.234773        -2.135631
 O        -5.042776         2.569347        -1.502169
 H         1.720196        -1.129787        -0.021495
 H         1.769889         0.264615        -1.348252
 H         1.602888         0.531933         0.528163
 H        -3.367941        -0.631014        -0.074960
 H        -1.963518        -0.359820         2.127098
 H        -3.713034         1.960909         1.157096
 H        -2.927742         2.361483        -0.223020
 H        -5.664299         1.021906        -0.188836
 H        -4.007877         1.105615        -2.928498
 H        -5.667562         0.654851        -2.577335
