19
Iteration:  4985
 C         0.490211         0.046946        -1.094804
 C        -0.816843         0.138807        -0.493894
 C        -1.839938         0.031487         0.105410
 C        -3.060775         0.144868         0.864749
 O        -2.611834         0.048814         2.254583
 C        -3.792385         1.509339         0.548860
 C        -4.617127         1.540211        -0.863012
 C        -4.008758         0.731423        -1.955241
 O        -3.875108         2.149887        -1.888174
 H         1.207269         0.674249        -0.626396
 H         0.886574        -0.966011        -1.104778
 H         0.611106         0.440786        -2.114589
 H        -3.930953        -0.510388         0.844192
 H        -2.237787         0.790313         2.647664
 H        -4.499417         1.760577         1.315492
 H        -3.176923         2.322315         0.526268
 H        -5.701403         1.763649        -0.882482
 H        -3.102399         0.113913        -1.736687
 H        -4.472611         0.300580        -2.807280
