19
Iteration:   347
 C         1.609140        -0.150006         0.033812
 C         0.140488        -0.210387         0.026017
 C        -1.075402        -0.115985        -0.035804
 C        -2.566321         0.206001        -0.031168
 O        -3.283878        -0.123314         1.054531
 C        -3.109883         1.598199        -0.327563
 C        -4.620355         1.564572        -0.321077
 C        -5.451215         1.128822        -1.488229
 O        -5.253877         2.477301        -1.282813
 H         2.058212        -0.473099        -0.913492
 H         1.877616         0.936071         0.052192
 H         2.073763        -0.501661         0.975497
 H        -2.853748        -0.409033        -0.944020
 H        -3.368046        -1.105193         1.104716
 H        -2.936368         2.212596         0.579260
 H        -2.565787         2.058504        -1.233540
 H        -5.193132         1.526956         0.729109
 H        -5.092660         0.659336        -2.471279
 H        -6.512090         0.772736        -1.241916
