19
Iteration:  4518charge 0 multiplicity 1
 C         0.395961        -0.484929        -1.251070
 C        -0.711273        -0.250780        -0.281889
 C        -1.514825         0.083584         0.500929
 C        -2.792625         0.280724         1.081851
 O        -2.696463         0.770091         2.347114
 C        -3.750003         1.255121         0.245952
 C        -3.825088         0.963376        -1.223520
 C        -3.856827         2.181112        -2.131447
 O        -5.113665         1.530811        -1.720762
 H         0.603698         0.373528        -1.780261
 H         1.331630        -0.774041        -0.702661
 H         0.220207        -1.213816        -2.039216
 H        -3.137385        -0.764266         0.969977
 H        -2.382564         0.046700         3.019589
 H        -4.748423         1.209305         0.596823
 H        -3.421898         2.262551         0.390611
 H        -3.573893        -0.048517        -1.671287
 H        -3.588121         3.077201        -1.586892
 H        -3.674140         2.267896        -3.220682
