19
Iteration:  2549
 C         1.360350         0.006879        -0.435869
 C        -0.029402        -0.042802        -0.104371
 C        -1.271464         0.052533         0.119890
 C        -2.704499         0.062233         0.363421
 O        -3.067704        -0.303867         1.703444
 C        -3.338522         1.454925        -0.057375
 C        -4.725580         1.246382        -0.658616
 C        -4.762273         1.418990        -2.158650
 O        -5.220614         2.425007        -1.230131
 H         1.616572        -0.692660        -1.268178
 H         1.835798         1.015992        -0.568904
 H         1.971956        -0.372308         0.441871
 H        -3.249356        -0.605079        -0.344773
 H        -2.823749         0.523510         2.192631
 H        -3.327510         2.056897         0.819771
 H        -2.827331         2.017344        -0.727850
 H        -5.507930         0.706698        -0.143932
 H        -3.816252         1.575289        -2.756396
 H        -5.603133         1.027414        -2.759769
