19
Iteration:  1829
 C         0.892823        -0.289535        -0.650404
 C        -0.503389         0.189553        -0.368389
 C        -1.679780         0.268748        -0.132506
 C        -2.844122         0.182602         0.675387
 O        -2.375398         0.092536         2.126017
 C        -3.922293         1.280297         0.486058
 C        -4.599456         1.030661        -0.853209
 C        -3.928161         1.414002        -2.122188
 O        -5.035492         2.233217        -1.715697
 H         1.580474         0.523697        -0.400134
 H         1.074289        -1.253857        -0.145874
 H         0.913677        -0.476880        -1.725172
 H        -3.182490        -0.899579         0.582985
 H        -2.182736         1.023212         2.349388
 H        -4.629773         1.159798         1.322754
 H        -3.401931         2.199284         0.437481
 H        -5.341442         0.176197        -0.823071
 H        -2.998673         2.008448        -2.236878
 H        -4.227594         1.008343        -3.075746
