19
Iteration:  3196charge 0 multiplicity 1
 C         1.274750         0.004015        -0.444482
 C        -0.165924        -0.100036        -0.204360
 C        -1.294348        -0.090738         0.178170
 C        -2.655271         0.068815         0.493343
 O        -2.892261        -0.021624         1.963473
 C        -3.348767         1.430632        -0.056114
 C        -4.613074         1.197942        -0.832894
 C        -4.685789         1.543267        -2.286132
 O        -5.336862         2.345251        -1.299241
 H         1.573630         0.654582         0.393228
 H         1.780643        -1.073124        -0.185751
 H         1.457260         0.270552        -1.553516
 H        -3.213902        -0.698048        -0.063505
 H        -3.479332        -0.776752         2.198145
 H        -3.616861         2.018061         0.794577
 H        -2.696327         1.965020        -0.748607
 H        -5.282647         0.371226        -0.370620
 H        -3.813845         2.039014        -2.867356
 H        -5.176191         0.999186        -3.110392
