19
Iteration:  4928
 C         0.758034        -0.108238        -0.986390
 C        -0.576991        -0.042070        -0.429594
 C        -1.599543         0.096212         0.177456
 C        -2.863841         0.193833         0.791914
 O        -2.717617         0.160886         2.262120
 C        -3.843676         1.425008         0.477511
 C        -4.723471         1.478848        -0.812270
 C        -4.277097         0.885109        -2.087771
 O        -4.175389         2.274606        -1.903316
 H         1.351478         0.652002        -0.391473
 H         1.142670        -1.076470        -0.747159
 H         0.698997         0.015395        -2.100909
 H        -3.626784        -0.568086         0.532663
 H        -1.799188        -0.041777         2.591430
 H        -4.554316         1.533346         1.250460
 H        -3.195592         2.291545         0.305767
 H        -5.810567         1.596070        -0.692341
 H        -3.280505         0.392578        -2.011888
 H        -5.081976         0.691254        -2.778325
