19
Iteration:  3726charge 0 multiplicity 1
 C         1.490631        -0.042107        -0.171565
 C         0.010402        -0.178147        -0.083391
 C        -1.186309        -0.113927         0.120789
 C        -2.692002         0.173162         0.341610
 O        -3.274849         0.141741         1.606723
 C        -3.116936         1.416633        -0.377118
 C        -4.579426         1.506703        -0.587491
 C        -5.469064         1.063645        -1.656391
 O        -4.922557         2.344269        -1.641835
 H         2.139033        -0.958922        -0.362625
 H         1.859189         0.585418        -0.948842
 H         2.044016         0.376009         0.674544
 H        -3.209639        -0.633706        -0.174540
 H        -3.102989        -0.513076         2.235051
 H        -2.630306         2.364065         0.166705
 H        -2.654162         1.666328        -1.323827
 H        -5.129960         1.615556         0.392219
 H        -5.060809         0.457653        -2.402669
 H        -6.578601         0.948905        -1.473813
