19
Iteration:  3500
 C         1.493703        -0.376613         0.584693
 C         0.145746        -0.041438         0.106469
 C        -1.020670         0.158752         0.001763
 C        -2.465720         0.206469        -0.385638
 O        -3.152009         0.050877         0.936304
 C        -2.989779         1.555190        -0.891886
 C        -4.507167         1.768743        -0.493550
 C        -5.639980         0.948450        -0.792683
 O        -5.435994         2.221140        -1.516974
 H         1.438833        -1.125874         1.410601
 H         2.348577        -0.781815        -0.013270
 H         1.964766         0.520568         1.114659
 H        -2.730167        -0.676252        -1.022760
 H        -3.775921        -0.712946         0.664933
 H        -2.487274         2.261147        -0.208372
 H        -2.869922         1.683489        -1.976507
 H        -4.609716         2.436868         0.418414
 H        -5.595666        -0.011226        -1.362480
 H        -6.466797         1.020995        -0.050351
