19
Iteration:  4064
 C         1.137847        -0.290694        -0.672943
 C        -0.175518        -0.084476        -0.165783
 C        -1.352294         0.123347         0.177626
 C        -2.766514         0.215776         0.603052
 O        -2.929879         0.408976         1.997328
 C        -3.497196         1.533757         0.193997
 C        -4.623699         1.167192        -0.756364
 C        -4.469303         1.072111        -2.195720
 O        -5.148420         2.199041        -1.615977
 H         1.066376        -0.633097        -1.730664
 H         1.699934         0.632336        -0.683265
 H         1.727680        -1.008660        -0.235991
 H        -3.380809        -0.495511         0.078995
 H        -2.172558        -0.123440         2.386484
 H        -3.727915         2.056047         1.123824
 H        -2.806428         2.311253        -0.346371
 H        -5.484210         0.685343        -0.182299
 H        -3.560344         1.244457        -2.842631
 H        -5.146012         0.362776        -2.599394
