19
Iteration:  2859
 C        -0.004901         0.309034        -1.741597
 C        -0.811995         0.248908        -0.504813
 C        -1.564469         0.275166         0.505922
 C        -2.891526        -0.076706         0.998334
 O        -3.026480         0.177928         2.364262
 C        -3.971025         0.882499         0.433077
 C        -3.976411         0.820087        -1.009194
 C        -3.131187         1.798660        -1.695705
 O        -4.519948         1.951173        -1.756075
 H        -0.551155         0.791926        -2.633204
 H         0.941520         0.946552        -1.526865
 H         0.181365        -0.658605        -2.244035
 H        -3.211741        -1.138306         0.915901
 H        -2.090119         0.065334         2.721403
 H        -4.896022         0.442052         0.888526
 H        -3.781370         1.814376         0.921041
 H        -4.218759        -0.158325        -1.419096
 H        -2.643374         2.668032        -1.134118
 H        -2.749931         1.656537        -2.764019
