19
Iteration:   855charge 0 multiplicity 1
 C         1.497385         0.018616         0.335765
 C         0.065291        -0.200011         0.217857
 C        -1.125425        -0.114497        -0.139687
 C        -2.548891         0.045440        -0.306905
 O        -3.094623        -0.201695         1.108613
 C        -3.044216         1.397441        -0.836100
 C        -4.495483         1.619718        -0.389276
 C        -5.754557         1.230562        -1.311840
 O        -5.207675         2.584201        -1.131448
 H         1.684133         1.051353         0.555361
 H         1.939103        -0.626199         1.100076
 H         1.875093        -0.105485        -0.668954
 H        -3.113524        -0.792210        -0.782369
 H        -2.378829        -0.829512         1.445448
 H        -2.409351         2.182895        -0.435857
 H        -2.994410         1.436731        -1.897607
 H        -4.717977         1.486638         0.784672
 H        -5.373524         0.790436        -2.332767
 H        -6.800186         0.915239        -0.982530
