19
Iteration:  3598
 C         1.525512        -0.254781         0.451581
 C         0.141886        -0.211413         0.144490
 C        -1.047619        -0.002044        -0.182068
 C        -2.529369         0.247682        -0.181948
 O        -3.270873        -0.099643         1.028162
 C        -3.002720         1.637155        -0.683597
 C        -4.517328         1.916561        -0.508245
 C        -5.619432         0.927260        -0.839388
 O        -5.303978         2.192971        -1.691776
 H         1.893555        -1.214582         0.899509
 H         2.286204        -0.067774        -0.366550
 H         1.812289         0.569559         1.187761
 H        -3.004084        -0.489267        -0.818994
 H        -3.227422         0.730561         1.609766
 H        -2.452299         2.404129        -0.273141
 H        -2.914425         1.488152        -1.764603
 H        -4.667571         2.519053         0.469148
 H        -5.402229        -0.000423        -1.344595
 H        -6.539116         1.024954        -0.160691
