19
Iteration:  3661
 C         1.447683        -0.131066         0.162043
 C        -0.057646         0.028539         0.151274
 C        -1.254242        -0.074855        -0.139345
 C        -2.669761         0.062710         0.070731
 O        -3.122588        -0.114948         1.432934
 C        -2.984734         1.555565        -0.634976
 C        -4.491623         1.916486        -0.534571
 C        -5.461764         1.009426        -1.167874
 O        -5.164590         2.243694        -1.775226
 H         1.629659        -1.233216         0.264987
 H         1.771043         0.229026        -0.736704
 H         1.882753         0.371519         1.017153
 H        -3.210974        -0.597768        -0.664665
 H        -2.479736        -0.766118         1.815695
 H        -2.315635         2.513298        -0.233202
 H        -2.499043         1.348668        -1.612855
 H        -4.957576         2.243096         0.447839
 H        -5.090004         0.194976        -1.748799
 H        -6.471197         0.830984        -0.714422
