19
Iteration:  1461charge 0 multiplicity 1
 C         0.708147        -0.059242        -1.109495
 C        -0.746420        -0.009306        -0.516822
 C        -1.801734        -0.060422        -0.030272
 C        -2.955681        -0.016386         0.887214
 O        -2.479759         0.502050         2.158394
 C        -4.143640         0.991318         0.540686
 C        -4.405866         0.979120        -0.982645
 C        -3.462225         1.734818        -1.741968
 O        -4.835142         2.122798        -1.717836
 H         0.695620        -0.379988        -2.244135
 H         1.158166         1.013679        -0.937711
 H         1.388417        -0.742596        -0.489467
 H        -3.268523        -1.037775         1.103774
 H        -1.906144         1.184809         1.824610
 H        -4.950277         0.734335         1.231513
 H        -3.915172         2.110785         0.764911
 H        -4.615827         0.070631        -1.546130
 H        -2.826655         2.558822        -1.299266
 H        -3.021697         1.362113        -2.744747
