19
Iteration:  1494charge 0 multiplicity 1
 C         0.463416        -0.073750        -1.228465
 C        -0.753124         0.066834        -0.428466
 C        -1.892906         0.065192         0.051906
 C        -2.945325         0.043624         1.023843
 O        -2.404948         0.536971         2.284599
 C        -4.237891         0.793024         0.430871
 C        -4.238594         0.860190        -1.090766
 C        -3.343062         1.771871        -1.860935
 O        -4.735544         2.177917        -1.636403
 H         0.227080        -0.162976        -2.379880
 H         1.080093         0.912087        -1.208193
 H         1.072374        -0.990876        -0.946518
 H        -3.304513        -0.986385         1.211866
 H        -1.754088         1.133393         1.892861
 H        -4.939607         0.148917         0.905269
 H        -4.480775         1.861544         0.706668
 H        -4.529277        -0.014526        -1.670438
 H        -2.601356         2.471367        -1.404330
 H        -3.131433         1.465243        -2.967818
