19
Iteration:  2632charge 0 multiplicity 1
 C         1.373045        -0.242603        -0.578979
 C        -0.117171        -0.049289        -0.272442
 C        -1.214751         0.222793         0.092844
 C        -2.762146         0.205845         0.547938
 O        -2.849137        -0.111603         2.037344
 C        -3.709843         1.376118         0.242063
 C        -4.649734         1.093540        -0.959499
 C        -4.446568         1.810142        -2.302295
 O        -5.396830         2.175221        -1.302085
 H         1.392919        -0.377761        -1.686029
 H         1.835214         0.752947        -0.564977
 H         1.804931        -1.019681         0.051887
 H        -3.184994        -0.552573        -0.089585
 H        -2.537665        -1.056112         2.057362
 H        -4.428766         1.600251         1.136452
 H        -3.135888         2.412400        -0.099547
 H        -5.142003         0.062506        -0.977185
 H        -3.500223         2.361704        -2.346240
 H        -4.842063         1.391864        -3.195117
