19
Iteration:  2940
 C         0.192606         0.482737        -1.441330
 C        -0.961373         0.110152        -0.615074
 C        -1.666953        -0.138459         0.328223
 C        -2.956546        -0.108033         1.036055
 O        -2.762126         0.221331         2.425854
 C        -3.883634         1.044892         0.467977
 C        -3.910467         0.882858        -1.044685
 C        -3.242423         1.759176        -1.953693
 O        -4.687017         1.973427        -1.712769
 H         0.077903         1.523256        -1.915786
 H         1.205013         0.572244        -0.963833
 H         0.463655        -0.238700        -2.277749
 H        -3.633126        -1.005598         1.005029
 H        -3.667468         0.472940         2.805484
 H        -4.803042         0.936176         0.921904
 H        -3.428475         1.997864         0.752485
 H        -4.360478        -0.070740        -1.377861
 H        -2.517231         2.386303        -1.468646
 H        -2.979762         1.486712        -2.935480
