19
Iteration:  2103charge 0 multiplicity 1
 C         1.438483        -0.113012        -0.073755
 C         0.050306         0.010012        -0.109205
 C        -1.183098         0.124282         0.183286
 C        -2.676320         0.155888         0.166967
 O        -3.049493        -0.050817         1.580612
 C        -3.185749         1.410813        -0.475229
 C        -4.602580         1.557418        -0.528230
 C        -5.433504         0.972435        -1.627326
 O        -5.079483         2.399887        -1.546808
 H         1.759927        -0.389911         1.009686
 H         1.908037        -0.866546        -0.840375
 H         2.060309         0.815678        -0.442321
 H        -2.850772        -0.715296        -0.418331
 H        -3.613442        -0.816025         1.680051
 H        -2.865967         2.287975         0.076562
 H        -2.614854         1.435894        -1.416589
 H        -5.062234         1.578928         0.506495
 H        -4.996712         0.377272        -2.428634
 H        -6.541809         0.895955        -1.443250
