19
Iteration:  2405charge 0 multiplicity 1
 C         1.438512         0.206200         0.284572
 C         0.065786        -0.121319        -0.099875
 C        -1.119588        -0.049480         0.047836
 C        -2.566344        -0.099325        -0.115915
 O        -3.318343        -0.351553         1.135230
 C        -2.996818         1.361528        -0.610041
 C        -4.455040         1.694452        -0.519108
 C        -5.567393         1.113392        -1.070800
 O        -5.147788         2.529244        -1.523361
 H         2.171479        -0.664127         0.118917
 H         1.911792         0.944532        -0.416867
 H         1.546929         0.749633         1.267800
 H        -2.882417        -0.935033        -0.737426
 H        -2.886193         0.132301         1.817114
 H        -2.468265         2.083250        -0.025439
 H        -2.628049         1.491230        -1.568237
 H        -4.785767         2.105343         0.468595
 H        -5.544649         0.392275        -1.897173
 H        -6.566670         1.172494        -0.576498
