19
Iteration:  2074
 C         1.422416        -0.011153        -0.332543
 C         0.040180         0.114028        -0.113189
 C        -1.164814        -0.007368         0.248325
 C        -2.647575         0.039237         0.399562
 O        -3.112637        -0.042692         1.739320
 C        -3.176625         1.303618        -0.296896
 C        -4.612935         1.446228        -0.560694
 C        -5.296551         1.104029        -1.850165
 O        -5.100174         2.461537        -1.609217
 H         1.885907        -0.290788         0.606408
 H         1.622132        -0.918225        -0.895652
 H         1.864768         0.819035        -0.871386
 H        -2.880668        -0.889044        -0.230614
 H        -4.120826         0.006956         1.708924
 H        -2.814648         2.189781         0.213822
 H        -2.552319         1.266259        -1.249214
 H        -5.187566         1.355873         0.351219
 H        -4.809322         0.645991        -2.718210
 H        -6.359780         0.850288        -1.658830
