19
Iteration:  1718charge 0 multiplicity 1
 C         0.376681         0.045087        -1.299812
 C        -0.603244        -0.033531        -0.390165
 C        -1.543439        -0.164317         0.414294
 C        -2.926045        -0.046806         1.071893
 O        -2.670960         0.496062         2.416695
 C        -3.761413         1.039660         0.351409
 C        -4.160111         0.983619        -1.110657
 C        -3.639254         1.854070        -2.239086
 O        -4.959682         2.102279        -1.694071
 H         0.548457         1.044062        -1.705057
 H         1.319066        -0.233995        -0.769012
 H         0.360159        -0.652139        -2.175257
 H        -3.454990        -0.989817         1.042273
 H        -2.452471        -0.304077         2.922502
 H        -4.704266         0.954554         0.967948
 H        -3.454456         2.006254         0.615285
 H        -4.557207         0.018571        -1.475448
 H        -2.886000         2.594405        -2.024784
 H        -3.529429         1.453077        -3.247455
