19
Iteration:  2505charge 0 multiplicity 1
 C         1.458121         0.135801        -0.284251
 C         0.011407        -0.000452        -0.132473
 C        -1.226550        -0.125410         0.166148
 C        -2.695116         0.027063         0.313098
 O        -3.177189        -0.401078         1.598366
 C        -3.179506         1.476827        -0.170228
 C        -4.688052         1.439367        -0.563645
 C        -5.214894         1.262195        -1.998809
 O        -5.066934         2.560824        -1.371294
 H         1.758579        -0.691126        -0.986057
 H         1.722760         1.165519        -0.632071
 H         2.064490         0.003496         0.697525
 H        -3.136051        -0.688234        -0.439001
 H        -2.582255        -0.164950         2.355014
 H        -2.955951         2.289015         0.482850
 H        -2.580060         1.586736        -0.985366
 H        -5.316578         1.033925         0.232886
 H        -4.427635         1.005506        -2.794149
 H        -6.226670         0.906797        -2.253475
