19
Iteration:  3020
 C         0.796587         0.114865        -1.036258
 C        -0.497698         0.153600        -0.341669
 C        -1.626826         0.037028         0.127852
 C        -2.898314        -0.002428         0.917537
 O        -2.683568         0.023730         2.339772
 C        -3.892709         1.121019         0.363021
 C        -4.320006         1.014922        -1.053118
 C        -3.829897         1.743943        -2.230791
 O        -4.997633         2.148414        -1.631009
 H         1.174342         1.117103        -1.191244
 H         1.360818        -0.501137        -0.280762
 H         0.721119        -0.411795        -2.015270
 H        -3.513274        -0.939136         0.771380
 H        -1.866049         0.630820         2.510830
 H        -4.740082         1.012243         1.086482
 H        -3.426173         2.104667         0.628571
 H        -4.685031         0.007101        -1.309271
 H        -2.943883         2.297081        -1.950869
 H        -3.946954         1.319507        -3.267514
