19
Iteration:  3616
 C         1.528663        -0.214064         0.430709
 C         0.111459        -0.156792         0.004660
 C        -1.096835         0.071504        -0.070498
 C        -2.589000         0.094572        -0.213978
 O        -3.264926        -0.010142         1.078958
 C        -3.015633         1.517078        -0.668503
 C        -4.491008         1.881944        -0.390693
 C        -5.593513         1.020951        -0.959012
 O        -5.242126         2.152919        -1.677853
 H         1.717187        -1.263141         0.783369
 H         2.055790        -0.029616        -0.432098
 H         1.713104         0.494127         1.211208
 H        -2.932905        -0.781919        -0.834918
 H        -2.738780         0.560996         1.735763
 H        -2.452420         2.091990         0.228171
 H        -2.827335         1.869314        -1.693097
 H        -4.783127         2.748738         0.182565
 H        -5.281874         0.023646        -1.348586
 H        -6.607482         1.004255        -0.610124
