19
Iteration:    26
 C         1.434084        -0.137275         0.088308
 C         0.066087         0.242083        -0.033176
 C        -1.133381         0.093222        -0.005374
 C        -2.561936         0.008354        -0.184929
 O        -3.206322        -0.587832         1.000100
 C        -3.164674         1.353532        -0.357609
 C        -4.607024         1.470061        -0.409926
 C        -5.511477         1.467170        -1.554309
 O        -5.023288         2.654990        -0.962618
 H         1.426541        -1.075915         0.660849
 H         1.871257        -0.442089        -0.851469
 H         2.076124         0.631793         0.523638
 H        -2.799332        -0.578276        -1.132431
 H        -2.875725        -1.537174         1.055757
 H        -2.855189         1.992631         0.463035
 H        -2.780293         1.674521        -1.268468
 H        -4.985313         1.214362         0.549751
 H        -5.149070         1.257276        -2.481471
 H        -6.509249         1.421771        -1.371454
