19
Iteration:  2168
 C         1.485255        -0.234832         0.398207
 C         0.058137        -0.118721         0.063763
 C        -1.091491         0.025006        -0.066176
 C        -2.501774         0.266412        -0.182015
 O        -3.028062        -0.087378         1.118770
 C        -3.000164         1.634022        -0.683112
 C        -4.554141         1.701170        -0.455388
 C        -5.601422         0.929413        -1.176311
 O        -5.435956         2.244514        -1.475227
 H         1.534623        -0.889922         1.276315
 H         2.060042        -0.825927        -0.352718
 H         1.924432         0.780835         0.394373
 H        -3.024966        -0.419216        -0.858628
 H        -2.706194         0.660439         1.640355
 H        -2.530805         2.399174        -0.046876
 H        -2.596133         1.831493        -1.683061
 H        -4.924750         1.980552         0.557091
 H        -5.231471         0.391812        -2.027566
 H        -6.613909         0.732817        -0.740333
