19
Iteration:  4994
 C         0.498858         0.107552        -1.181606
 C        -0.842434         0.110248        -0.491018
 C        -1.865244        -0.003643         0.192882
 C        -3.150810         0.209873         0.870856
 O        -2.593518         0.025441         2.273788
 C        -3.900012         1.539806         0.494037
 C        -4.540754         1.522573        -0.819985
 C        -3.996328         0.718171        -1.922406
 O        -3.808625         2.158005        -1.933727
 H         1.221913         0.618329        -0.466314
 H         0.899596        -0.898708        -1.153645
 H         0.506837         0.443036        -2.270665
 H        -3.547071        -0.835452         0.813627
 H        -2.167517         0.783827         2.587473
 H        -4.485747         1.615194         1.383699
 H        -3.050815         2.301680         0.474867
 H        -5.627231         1.659553        -0.813613
 H        -3.064665         0.061079        -1.713636
 H        -4.647295         0.450738        -2.727889
