19
Iteration:  2572charge 0 multiplicity 1
 C         1.248015        -0.109888        -0.465618
 C        -0.106989         0.125389        -0.003578
 C        -1.280791         0.027481         0.030550
 C        -2.733153         0.170366         0.440489
 O        -2.951430        -0.346540         1.774781
 C        -3.352420         1.506891        -0.005494
 C        -4.589902         1.166597        -0.807587
 C        -4.668344         1.512902        -2.171832
 O        -5.336311         2.373856        -1.238105
 H         1.078272        -0.696737        -1.394321
 H         1.880270         0.769218        -0.709098
 H         1.967537        -0.697470         0.167263
 H        -3.386645        -0.552313        -0.105221
 H        -2.637510         0.321009         2.382300
 H        -3.502293         2.135884         0.823148
 H        -2.702740         2.024216        -0.600369
 H        -5.215116         0.335827        -0.567051
 H        -3.726897         1.821940        -2.678795
 H        -5.349671         0.890494        -2.825515
