19
Iteration:  3030
 C         0.853700         0.042002        -0.954272
 C        -0.523423         0.179482        -0.377509
 C        -1.612307         0.096744         0.091736
 C        -2.874205         0.014084         0.866283
 O        -2.682220         0.004761         2.302124
 C        -3.847729         1.129344         0.386786
 C        -4.396539         0.960209        -1.049742
 C        -3.814999         1.760703        -2.215156
 O        -5.042486         2.143441        -1.583810
 H         1.384120         1.011452        -1.030730
 H         1.571738        -0.534618        -0.290236
 H         0.787588        -0.448582        -1.967151
 H        -3.240572        -1.022778         0.659099
 H        -2.392668         0.942076         2.552296
 H        -4.675627         1.172976         1.067200
 H        -3.311077         2.102622         0.366665
 H        -5.084963         0.117677        -1.210475
 H        -2.956970         2.407658        -2.148285
 H        -3.892040         1.272540        -3.186143
