19
Iteration:  4414
 C         0.312712        -0.262017        -1.286018
 C        -0.759842        -0.242707        -0.359235
 C        -1.748826         0.073852         0.260738
 C        -2.906959         0.374372         1.187074
 O        -2.517624         0.507569         2.511835
 C        -3.837957         1.368579         0.376541
 C        -4.002561         0.879765        -1.088303
 C        -3.517569         1.809283        -2.180811
 O        -4.992720         1.711736        -1.863229
 H         0.282928         0.645120        -2.052947
 H         1.321661        -0.153595        -0.874852
 H         0.490090        -1.142886        -1.932019
 H        -3.552623        -0.500289         1.237272
 H        -2.152866         1.336518         2.817267
 H        -4.849612         1.403251         0.857167
 H        -3.577627         2.450238         0.322581
 H        -4.015209        -0.166702        -1.301937
 H        -3.034100         2.821110        -2.008962
 H        -3.200340         1.361692        -3.073582
