19
Iteration:  4099
 C         0.976228        -0.165864        -0.832573
 C        -0.283903         0.006030        -0.098310
 C        -1.410543         0.105173         0.255124
 C        -2.790026         0.251912         0.761225
 O        -2.830618         0.229207         2.230087
 C        -3.428964         1.532001         0.098744
 C        -4.596142         1.222082        -0.746208
 C        -4.488231         1.017376        -2.287540
 O        -5.006911         2.233308        -1.760999
 H         0.732062        -0.371310        -1.905378
 H         1.604795         0.677378        -0.822705
 H         1.542665        -1.013752        -0.478870
 H        -3.240192        -0.728177         0.582831
 H        -2.158658        -0.460943         2.414955
 H        -3.757364         2.390089         0.700343
 H        -2.701547         1.837637        -0.619745
 H        -5.604368         0.837905        -0.332220
 H        -3.558071         1.088280        -2.776677
 H        -5.189665         0.323085        -2.788506
