19
Iteration:   429charge 0 multiplicity 1
 C         1.331500        -0.105190        -0.180624
 C        -0.079556         0.216632         0.016118
 C        -1.278066         0.022740        -0.159159
 C        -2.697734        -0.067659         0.182314
 O        -2.888422        -0.328373         1.559242
 C        -3.212367         1.425051        -0.146312
 C        -4.682134         1.469724        -0.492927
 C        -5.211855         1.242069        -1.840849
 O        -5.013873         2.575320        -1.376316
 H         1.479877        -0.334957        -1.257301
 H         2.087389         0.595292         0.210518
 H         1.430723        -1.131220         0.208359
 H        -3.104969        -0.726314        -0.547950
 H        -3.814260        -0.246288         1.720257
 H        -2.926259         2.192584         0.674846
 H        -2.550836         1.657233        -0.961386
 H        -5.352577         1.418723         0.257068
 H        -4.555252         0.773997        -2.573028
 H        -6.276485         1.006744        -1.933042
