19
Iteration:   385charge 0 multiplicity 1
 C         1.460979        -0.093516         0.006933
 C         0.029504        -0.122194        -0.183295
 C        -1.179891        -0.009673        -0.032168
 C        -2.679711         0.096879         0.098973
 O        -3.084390        -0.312892         1.370314
 C        -3.105367         1.553878        -0.312819
 C        -4.594176         1.642217        -0.395068
 C        -5.231177         1.151558        -1.619678
 O        -5.291224         2.534065        -1.367471
 H         2.043574        -0.368237        -0.886896
 H         1.696523         0.932263         0.310942
 H         1.804880        -0.817770         0.750347
 H        -3.113789        -0.599480        -0.573292
 H        -3.795975        -0.919068         1.245398
 H        -2.566416         2.152813         0.448571
 H        -2.685396         1.828958        -1.254141
 H        -5.083473         1.637312         0.514045
 H        -4.571983         1.037075        -2.458819
 H        -6.117391         0.542952        -1.635626
