19
Iteration:  2705charge 0 multiplicity 1
 C         0.993693        -0.059688        -0.667223
 C        -0.500017         0.043269        -0.448328
 C        -1.595071        -0.002224        -0.037691
 C        -2.805047         0.036641         0.736322
 O        -2.515944         0.035430         2.217774
 C        -3.855800         1.153054         0.362168
 C        -4.341223         1.033921        -1.097065
 C        -4.071152         2.017413        -2.168009
 O        -5.275758         2.092940        -1.498128
 H         1.139905         0.099740        -1.729232
 H         1.547946         0.831633        -0.227026
 H         1.337414        -0.961227        -0.143409
 H        -3.368385        -0.932728         0.470011
 H        -1.566845         0.043803         2.302563
 H        -4.540698         0.965842         1.118807
 H        -3.428156         2.086169         0.479084
 H        -4.691681         0.069542        -1.411421
 H        -3.402776         2.913959        -2.023390
 H        -4.260894         1.744624        -3.235165
