19
Iteration:  3847
 C         1.367212        -0.246524        -0.463172
 C        -0.058428        -0.200299        -0.098241
 C        -1.226552         0.036939         0.252482
 C        -2.706295         0.237467         0.532332
 O        -3.103164         0.312165         2.009215
 C        -3.214227         1.360596        -0.291286
 C        -4.680016         1.153143        -0.774665
 C        -4.896844         1.308170        -2.254307
 O        -5.332051         2.327451        -1.361856
 H         1.774157        -1.133624        -1.105068
 H         1.832697         0.643082        -0.964234
 H         2.089418        -0.366637         0.410464
 H        -3.077031        -0.744654         0.223522
 H        -2.222281         0.560376         2.298429
 H        -2.964129         2.401561         0.071227
 H        -2.597937         1.388055        -1.184594
 H        -5.318883         0.493533        -0.108278
 H        -3.975041         1.594718        -2.732869
 H        -5.610318         0.736399        -2.817282
