19
Iteration:  4034
 C         1.217758        -0.357546        -0.509515
 C        -0.173403        -0.128291        -0.334740
 C        -1.295123         0.160392         0.121156
 C        -2.697662         0.343845         0.628797
 O        -2.801208         0.298178         2.195729
 C        -3.474228         1.590225        -0.005017
 C        -4.721158         1.171117        -0.781985
 C        -4.512483         1.175397        -2.249979
 O        -5.318423         2.174794        -1.612898
 H         1.385516        -0.820908        -1.543810
 H         1.754431         0.576166        -0.428370
 H         1.517892        -1.041572         0.360527
 H        -3.300493        -0.461576         0.112080
 H        -2.543086        -0.586013         2.372535
 H        -3.738858         2.099246         0.913086
 H        -2.956813         2.116784        -0.663701
 H        -5.574566         0.727619        -0.153438
 H        -3.623529         1.530875        -2.711498
 H        -5.125669         0.435279        -2.731577
