19
Iteration:  1038charge 0 multiplicity 1
 C         1.453596        -0.206662        -0.123255
 C         0.026683         0.179046         0.305492
 C        -1.186301         0.051389         0.238079
 C        -2.552769         0.067739        -0.055268
 O        -3.312995        -0.289960         1.090447
 C        -3.100841         1.441631        -0.667477
 C        -4.546735         1.646121        -0.342727
 C        -5.392511         1.073711        -1.404320
 O        -5.118130         2.532380        -1.322321
 H         2.125992        -0.543413         0.723399
 H         1.383791        -1.157022        -0.736245
 H         2.012661         0.560943        -0.722980
 H        -2.802652        -0.780014        -0.857851
 H        -2.816487         0.142252         1.791173
 H        -2.472013         2.260120        -0.169603
 H        -2.658690         1.324163        -1.709120
 H        -4.882341         1.371048         0.647398
 H        -5.106072         0.777401        -2.395787
 H        -6.303926         0.731005        -1.003338
