19
Iteration:  4211charge 0 multiplicity 1
 C         0.753393         0.064539        -1.026035
 C        -0.562505         0.019920        -0.359711
 C        -1.637057        -0.123437         0.287054
 C        -2.924005         0.306298         0.898437
 O        -2.668993         0.226819         2.303295
 C        -3.579291         1.615207         0.363922
 C        -4.577449         1.293084        -0.840853
 C        -4.087313         0.859873        -2.127108
 O        -4.699838         2.140442        -1.978558
 H         0.764145         0.181383        -2.069411
 H         1.449642         0.780081        -0.535645
 H         1.213126        -0.982698        -0.885482
 H        -3.664461        -0.486971         0.633104
 H        -2.059104        -0.484876         2.262988
 H        -4.117021         1.860704         1.368165
 H        -2.916101         2.450934         0.252205
 H        -5.568741         0.868821        -0.422916
 H        -2.997319         0.950004        -2.445231
 H        -4.812297         0.159105        -2.431550
