19
Iteration:   190charge 0 multiplicity 1
 C         1.394324        -0.090631         0.544848
 C        -0.000643         0.005355        -0.046443
 C        -1.179836        -0.074636        -0.378950
 C        -2.650169         0.097138        -0.399444
 O        -3.202665        -0.562573         0.824872
 C        -2.930927         1.598023        -0.590748
 C        -4.436255         1.883096        -0.281905
 C        -5.406282         1.039114        -1.023525
 O        -5.300756         2.576008        -1.189864
 H         1.730251        -1.129880         0.509931
 H         2.155512         0.451724        -0.010367
 H         1.392410         0.302522         1.554297
 H        -3.030190        -0.541245        -1.171265
 H        -2.470784        -0.358836         1.415237
 H        -2.301169         2.115451         0.115948
 H        -2.773857         1.805065        -1.614112
 H        -4.693126         2.015181         0.815490
 H        -5.170920         0.536568        -1.895920
 H        -6.271918         0.688066        -0.529481
