19
Iteration:  1275
 C         1.038622        -0.172168        -0.791058
 C        -0.203441         0.046107        -0.137337
 C        -1.376461         0.038416         0.188680
 C        -2.742649         0.085204         0.645576
 O        -2.909228        -0.034087         2.043046
 C        -3.314164         1.447307         0.152553
 C        -4.562741         1.225967        -0.791790
 C        -4.462370         1.435906        -2.275569
 O        -5.238817         2.381792        -1.478114
 H         1.017035        -1.214735        -1.029685
 H         1.166776         0.262525        -1.733157
 H         1.888094        -0.047095        -0.183629
 H        -3.427810        -0.799279         0.230479
 H        -2.860118        -0.875661         2.453503
 H        -3.496241         1.932660         1.113506
 H        -2.591460         2.080389        -0.453578
 H        -5.370782         0.593252        -0.468929
 H        -3.410143         1.907894        -2.502475
 H        -5.063848         0.917879        -3.073849
