19
Iteration:  1023charge 0 multiplicity 1
 C         1.478516        -0.206616         0.022653
 C         0.102924         0.140485         0.149434
 C        -1.108380         0.130776         0.172482
 C        -2.591733         0.010417        -0.108818
 O        -3.365854        -0.299675         1.097226
 C        -3.039515         1.368397        -0.668481
 C        -4.507214         1.625008        -0.381433
 C        -5.485496         1.108845        -1.377931
 O        -5.151729         2.549439        -1.269000
 H         2.034338        -0.262555         1.005089
 H         1.529614        -1.187847        -0.502086
 H         1.973513         0.590612        -0.587589
 H        -2.790123        -0.846514        -0.825409
 H        -2.882787         0.116039         1.882639
 H        -2.435597         2.161331        -0.272567
 H        -3.079374         1.566887        -1.733344
 H        -4.705232         1.921348         0.659682
 H        -4.944206         0.497800        -2.145333
 H        -6.610863         0.914424        -1.168597
