19
Iteration:  4282charge 0 multiplicity 1
 C         0.746659        -0.129149        -1.158289
 C        -0.632761         0.067214        -0.449444
 C        -1.699632        -0.007530         0.200934
 C        -2.939690         0.278235         0.883860
 O        -2.609854         0.485767         2.350700
 C        -3.928547         1.316926         0.471719
 C        -4.667696         1.123787        -0.890198
 C        -3.753683         0.998823        -2.071134
 O        -4.567903         2.176249        -1.849083
 H         0.736499         0.287497        -2.263588
 H         1.550007         0.383926        -0.553738
 H         0.971454        -1.206158        -1.233450
 H        -3.523923        -0.664546         0.935649
 H        -1.695123         0.488421         2.515856
 H        -4.677746         1.326648         1.271195
 H        -3.626906         2.398015         0.350532
 H        -5.541474         0.548900        -0.807088
 H        -2.766940         1.181910        -1.795828
 H        -4.055410         0.486757        -3.019375
