19
Iteration:  1191charge 0 multiplicity 1
 C         1.258761        -0.165441        -0.235257
 C        -0.203808        -0.113688        -0.294529
 C        -1.372080        -0.009359        -0.078297
 C        -2.730978         0.107047         0.413108
 O        -2.689048        -0.217534         1.848267
 C        -3.402096         1.485672         0.089672
 C        -4.741276         1.509218        -0.636597
 C        -4.950522         1.206748        -2.063372
 O        -5.086682         2.528613        -1.583949
 H         1.720383        -1.113216         0.187441
 H         1.650949         0.137201        -1.272748
 H         1.583225         0.679013         0.461221
 H        -3.494952        -0.539131         0.013303
 H        -1.724404        -0.254425         2.122549
 H        -3.351663         1.937811         1.091372
 H        -2.782755         2.211794        -0.509770
 H        -5.665947         1.378690        -0.066147
 H        -4.052607         1.200184        -2.720317
 H        -5.758631         0.732534        -2.609970
