19
Iteration:  3172
 C         1.286899        -0.106331        -0.357217
 C        -0.223091        -0.006813        -0.403658
 C        -1.387967         0.064165         0.083785
 C        -2.778779         0.111525         0.469101
 O        -2.800910         0.015615         1.924505
 C        -3.447270         1.337027         0.062264
 C        -4.570367         1.143814        -0.855859
 C        -4.516862         1.548474        -2.246855
 O        -5.306745         2.278149        -1.254904
 H         1.625162         0.678194         0.341364
 H         1.744106        -1.122238         0.009538
 H         1.590386         0.054354        -1.455572
 H        -3.324618        -0.723053        -0.020213
 H        -3.765410        -0.016013         2.259748
 H        -3.902813         1.758259         1.016338
 H        -2.684049         2.065232        -0.342944
 H        -5.244882         0.265312        -0.573447
 H        -3.603271         1.865788        -2.680834
 H        -5.054639         0.965501        -3.009449
