19
Iteration:  2338
 C         1.432551        -0.063745         0.620003
 C         0.038604         0.048564         0.182682
 C        -1.168152         0.078166        -0.185442
 C        -2.626535        -0.024892        -0.421862
 O        -3.153421        -0.166104         0.868444
 C        -2.923587         1.422030        -0.905316
 C        -4.331794         1.804812        -0.414495
 C        -5.576744         1.021975        -0.815574
 O        -5.387085         2.314907        -1.389732
 H         1.491584        -1.212260         0.730725
 H         2.019723         0.265417        -0.285747
 H         1.778815         0.658299         1.422423
 H        -2.974622        -0.810193        -1.104948
 H        -2.420960        -0.218416         1.556800
 H        -2.217708         2.127129        -0.623942
 H        -2.924373         1.462389        -1.970640
 H        -4.262129         2.442212         0.504760
 H        -5.670523         0.119404        -1.407504
 H        -6.309970         0.934174         0.034607
