19
Iteration:    53charge 0 multiplicity 1
 C         1.594584        -0.173656         0.160566
 C         0.147436         0.233880         0.101527
 C        -1.082802         0.160441        -0.050592
 C        -2.528544        -0.062710        -0.245380
 O        -3.171992        -0.772246         1.008719
 C        -3.194280         1.369140        -0.499320
 C        -4.679960         1.557570        -0.300168
 C        -5.555252         1.463401        -1.365160
 O        -5.147210         2.794086        -1.143338
 H         1.643950        -1.208863         0.536204
 H         2.013130        -0.325186        -0.873659
 H         2.252282         0.564332         0.646831
 H        -2.703785        -0.763999        -1.084554
 H        -4.070188        -0.998499         0.685455
 H        -2.614695         2.029524         0.206066
 H        -3.048652         1.595664        -1.649479
 H        -4.986994         1.503078         0.775961
 H        -5.076318         0.894028        -2.286202
 H        -6.705815         1.381448        -1.157233
