19
Iteration:   989
 C         1.572700        -0.073559         0.307845
 C         0.172903        -0.130883        -0.070228
 C        -1.076428        -0.052215        -0.017668
 C        -2.528064         0.024636        -0.131906
 O        -3.248806        -0.371491         1.151610
 C        -3.092292         1.461003        -0.667928
 C        -4.540077         1.678548        -0.479955
 C        -5.730701         1.170326        -1.278668
 O        -5.190913         2.616664        -1.317554
 H         1.646761         0.281646         1.348938
 H         2.120076        -1.019184         0.241638
 H         2.128194         0.629026        -0.331031
 H        -2.998484        -0.539621        -0.902720
 H        -2.767766         0.232007         1.793789
 H        -2.653200         2.339635        -0.225570
 H        -2.836004         1.448999        -1.705422
 H        -4.570258         1.826562         0.607781
 H        -5.654632         0.478941        -2.174172
 H        -6.714627         1.051518        -0.688592
