19
Iteration:   679
 C         1.389920        -0.146015        -0.110268
 C        -0.057614        -0.093064        -0.400439
 C        -1.201993         0.094552        -0.113830
 C        -2.667199         0.155925         0.206114
 O        -3.053404        -0.273826         1.585107
 C        -3.288726         1.535945         0.013953
 C        -4.713950         1.389540        -0.487119
 C        -5.011590         1.271120        -1.971857
 O        -5.152792         2.534332        -1.250327
 H         1.870922         0.575111        -0.732591
 H         1.459402         0.143822         0.917445
 H         1.772127        -1.142851        -0.116128
 H        -3.153371        -0.461640        -0.618437
 H        -2.633851        -1.171352         1.769354
 H        -3.159326         2.216422         0.798134
 H        -2.643378         1.772558        -0.772791
 H        -5.404877         0.910401         0.144092
 H        -4.201250         1.186864        -2.707059
 H        -5.990426         0.905959        -2.410326
