19
Iteration:  4658
 C         0.958739        -0.576176        -0.672854
 C        -0.381486        -0.282843        -0.325888
 C        -1.591179        -0.061519         0.080490
 C        -2.865963         0.231765         0.842884
 O        -2.507637         0.574945         2.166913
 C        -3.769127         1.425277         0.354577
 C        -4.347487         1.176887        -1.098864
 C        -4.036630         1.939939        -2.220617
 O        -5.421397         1.878170        -1.644297
 H         1.560180         0.321973        -0.918976
 H         1.519704        -1.134675         0.151593
 H         1.207535        -1.148267        -1.612146
 H        -3.547725        -0.678304         0.751765
 H        -1.653368         0.071013         2.434293
 H        -4.633361         1.948961         0.941428
 H        -3.147295         2.304519         0.283656
 H        -4.406626         0.084445        -1.369626
 H        -3.635029         2.923524        -2.109186
 H        -4.004216         1.411043        -3.155636
