19
Iteration:   270charge 0 multiplicity 1
 C         1.562510        -0.333296         0.297690
 C         0.219696         0.159237         0.051521
 C        -1.031546         0.107401         0.048463
 C        -2.562084         0.134856        -0.282111
 O        -3.075075        -0.603444         0.875389
 C        -3.124123         1.510542        -0.557190
 C        -4.588398         1.757053        -0.372397
 C        -5.681121         1.186745        -1.164915
 O        -5.339606         2.588785        -1.278626
 H         1.674702        -1.344419        -0.128378
 H         2.366105         0.339972        -0.081084
 H         1.690499        -0.496009         1.381762
 H        -2.651571        -0.544411        -1.079903
 H        -3.753738         0.006983         1.133501
 H        -2.560237         2.356138        -0.172402
 H        -2.986102         1.776821        -1.670148
 H        -4.768919         2.054206         0.755738
 H        -5.227256         0.463225        -1.930771
 H        -6.682150         0.942572        -0.761686
