19
Iteration:  1245charge 0 multiplicity 1
 C         1.205603        -0.160413        -0.595983
 C        -0.178776        -0.049881        -0.154911
 C        -1.397268         0.004547         0.055487
 C        -2.792525         0.072353         0.489414
 O        -2.822031         0.030411         1.926036
 C        -3.459543         1.474389         0.087507
 C        -4.705422         1.249573        -0.761687
 C        -4.582635         1.253840        -2.167223
 O        -5.092332         2.505125        -1.368990
 H         1.324706        -1.275682        -0.609484
 H         1.455846         0.218647        -1.631047
 H         1.935266         0.279174         0.124083
 H        -3.533550        -0.592842         0.074701
 H        -2.507047        -0.878520         2.212838
 H        -3.708512         1.810092         1.097552
 H        -2.976258         2.216015        -0.605664
 H        -5.598921         0.776674        -0.341892
 H        -3.480959         1.459899        -2.488280
 H        -5.344164         0.888816        -2.897271
