19
Iteration:   304
 C         1.467105        -0.310231         0.094852
 C         0.049735         0.132057         0.191683
 C        -1.136102         0.263400         0.007253
 C        -2.568691         0.148948        -0.177783
 O        -3.228213        -0.554697         0.939863
 C        -3.051849         1.511019        -0.516500
 C        -4.458676         1.730759        -0.371668
 C        -5.418707         1.126076        -1.310135
 O        -5.338761         2.546544        -1.222064
 H         1.558459        -1.056765        -0.708491
 H         2.163415         0.511074        -0.189900
 H         1.846707        -0.674883         1.073881
 H        -2.832369        -0.460105        -0.997063
 H        -2.876640        -0.319156         1.801186
 H        -2.330337         2.245302        -0.151185
 H        -2.912983         1.339088        -1.658839
 H        -4.890080         1.766091         0.669469
 H        -4.870875         0.514217        -2.111785
 H        -6.383753         0.639740        -0.970255
