19
Iteration:  1351charge 0 multiplicity 1
 C         0.824946        -0.156090        -1.070293
 C        -0.321347        -0.014354        -0.232104
 C        -1.409362         0.003575         0.325504
 C        -2.815216         0.136010         0.782126
 O        -2.950613         0.061372         2.221627
 C        -3.512879         1.386435         0.267793
 C        -4.416291         1.101716        -0.970568
 C        -4.040170         1.683238        -2.239054
 O        -5.199712         2.121064        -1.493356
 H         0.814292        -0.905480        -1.860245
 H         0.940593         0.754844        -1.636080
 H         1.693710        -0.377068        -0.478538
 H        -3.408868        -0.643189         0.370988
 H        -2.021667         0.151709         2.564633
 H        -4.075263         1.972464         0.969711
 H        -2.819450         2.143912        -0.133959
 H        -5.021465         0.204944        -1.036737
 H        -3.105434         2.299369        -2.242590
 H        -4.309047         1.377046        -3.236650
