19
Iteration:  1664charge 0 multiplicity 1
 C         0.218965         0.042564        -1.528569
 C        -0.834075        -0.004728        -0.554027
 C        -1.667035         0.066929         0.345184
 C        -2.931005         0.140487         1.063016
 O        -2.885396         0.322431         2.446183
 C        -3.733071         1.332093         0.484585
 C        -3.931549         0.962443        -0.989349
 C        -3.337067         1.895223        -1.983989
 O        -4.821113         1.660665        -1.738430
 H        -0.044609         0.852153        -2.150825
 H         1.244128         0.112545        -1.226194
 H         0.223254        -0.793713        -2.212212
 H        -3.502507        -0.747952         0.851294
 H        -2.644527        -0.507089         2.822012
 H        -4.726326         1.345338         1.078298
 H        -3.155002         2.226890         0.515141
 H        -3.643061        -0.086202        -1.197390
 H        -2.791186         2.729810        -1.595860
 H        -3.067383         1.501916        -2.961633
