19
Iteration:   383
 C         1.483727        -0.096046         0.011161
 C         0.038782        -0.138774        -0.187268
 C        -1.169432        -0.011994        -0.035035
 C        -2.675189         0.116363         0.077372
 O        -3.104522        -0.309320         1.378330
 C        -3.116364         1.549403        -0.313932
 C        -4.596566         1.653082        -0.380564
 C        -5.229674         1.152293        -1.613598
 O        -5.299400         2.530413        -1.366866
 H         2.080789        -0.342725        -0.890647
 H         1.678883         0.942548         0.299135
 H         1.849440        -0.800167         0.795172
 H        -3.087698        -0.583695        -0.598351
 H        -3.822855        -0.937398         1.238439
 H        -2.540396         2.082295         0.458840
 H        -2.627036         1.810113        -1.282641
 H        -5.141483         1.635603         0.482425
 H        -4.577539         1.023801        -2.499021
 H        -6.170765         0.536031        -1.623179
