19
Iteration:  2693
 C         1.003616        -0.096110        -0.644520
 C        -0.375081         0.119935        -0.336424
 C        -1.519604        -0.005482        -0.086896
 C        -2.809553         0.084590         0.745692
 O        -2.526773         0.024719         2.163443
 C        -3.837026         1.178444         0.317063
 C        -4.411381         1.020636        -1.103928
 C        -4.132080         2.009870        -2.203531
 O        -5.342058         2.124812        -1.427365
 H         1.229936        -0.300357        -1.680227
 H         1.638895         0.723154        -0.211707
 H         1.423771        -1.075406        -0.323302
 H        -3.337987        -0.937526         0.633014
 H        -1.706993        -0.551573         2.220262
 H        -4.741462         1.201117         0.864110
 H        -3.469238         2.101407         0.435924
 H        -4.746352         0.059397        -1.394239
 H        -3.292538         2.723653        -2.067498
 H        -4.122162         1.515139        -3.223106
