19
Iteration:  1172
 C         1.264748        -0.153179        -0.209893
 C        -0.194634         0.043866        -0.100913
 C        -1.406666        -0.108484        -0.155269
 C        -2.820549         0.087614         0.360667
 O        -2.667539        -0.266148         1.718218
 C        -3.373994         1.604658        -0.003665
 C        -4.742587         1.486823        -0.586447
 C        -4.926336         1.199742        -1.950871
 O        -5.070573         2.534108        -1.586232
 H         1.400763        -1.147089         0.241146
 H         1.561878        -0.113913        -1.298918
 H         1.903315         0.545865         0.373001
 H        -3.514093        -0.750570        -0.101840
 H        -1.768619         0.025039         2.043767
 H        -3.153631         2.232623         0.930756
 H        -2.593077         1.837339        -0.738437
 H        -5.563788         1.163307         0.103713
 H        -4.139434         0.789542        -2.480186
 H        -5.915462         0.794464        -2.168742
