19
Iteration:   711charge 0 multiplicity 1
 C         1.409849        -0.108749        -0.055174
 C        -0.023539        -0.237134        -0.059547
 C        -1.203733        -0.084546        -0.144007
 C        -2.663505         0.112386         0.033366
 O        -2.926601        -0.286775         1.398376
 C        -3.219923         1.651520        -0.001312
 C        -4.656704         1.570107        -0.408756
 C        -5.070889         1.227121        -1.825211
 O        -5.409542         2.581979        -1.367248
 H         1.711024         0.684168        -0.700841
 H         1.677896         0.190706         0.921849
 H         1.951538        -0.938464        -0.435537
 H        -3.073305        -0.445444        -0.841938
 H        -2.627952        -1.178638         1.491436
 H        -3.029479         2.109429         0.893224
 H        -2.607110         2.033322        -0.787510
 H        -5.240058         1.139532         0.350829
 H        -4.275072         1.132151        -2.566783
 H        -5.971005         0.578875        -2.032931
