19
Iteration:  3090charge 0 multiplicity 1
 C         1.188104        -0.210011        -0.632512
 C        -0.280674         0.043677        -0.246837
 C        -1.434688         0.301780        -0.054120
 C        -2.764905         0.160678         0.632548
 O        -2.620375         0.006763         2.083578
 C        -3.849842         1.295468         0.355668
 C        -4.618493         1.099323        -0.954298
 C        -4.150757         1.623848        -2.234061
 O        -5.307932         2.216953        -1.517916
 H         1.787376         0.694956        -0.391457
 H         1.450677        -1.085626        -0.015783
 H         1.389288        -0.449325        -1.682613
 H        -3.247153        -0.790611         0.207889
 H        -2.457349        -0.979427         2.232714
 H        -4.732654         1.194452         1.186880
 H        -3.497278         2.339198         0.484703
 H        -5.286144         0.219607        -0.897063
 H        -3.103443         2.151493        -2.265820
 H        -4.507387         0.952406        -3.033324
