19
Iteration:  1104charge 0 multiplicity 1
 C         1.469808        -0.119215        -0.217252
 C         0.054298        -0.159231        -0.163003
 C        -1.104018        -0.060732         0.159690
 C        -2.567896         0.141087         0.233724
 O        -3.283746        -0.238607         1.455097
 C        -3.108243         1.569558        -0.210189
 C        -4.690713         1.649623        -0.418520
 C        -5.260797         1.096607        -1.759229
 O        -5.172190         2.478902        -1.497478
 H         1.813482        -0.815741         0.644316
 H         1.899273        -0.486188        -1.237464
 H         1.946717         0.903707        -0.023713
 H        -3.075111        -0.601425        -0.576435
 H        -2.786926         0.062693         2.266913
 H        -2.975215         2.469229         0.492330
 H        -2.946576         2.077647        -1.235430
 H        -5.314811         1.358737         0.454959
 H        -4.516834         0.617835        -2.433979
 H        -6.258080         0.745720        -1.915984
