19
Iteration:  1640
 C         0.159852        -0.006080        -1.603468
 C        -0.954636         0.179657        -0.545851
 C        -1.677175         0.081822         0.378792
 C        -2.929674         0.102866         1.148769
 O        -2.883044         0.227180         2.544362
 C        -3.757471         1.305384         0.526458
 C        -3.854529         1.020883        -0.927733
 C        -3.342804         1.910082        -2.046967
 O        -4.736843         1.661948        -1.903924
 H         0.004265         0.577318        -2.548953
 H         1.262766         0.073471        -1.371656
 H         0.121565        -1.059645        -2.038107
 H        -3.383317        -0.859247         0.962107
 H        -1.963862        -0.124719         2.723879
 H        -4.779838         1.137476         0.934559
 H        -3.206034         2.187415         0.741421
 H        -3.911507        -0.082662        -1.045464
 H        -3.114285         2.917965        -1.584133
 H        -2.824625         1.456065        -2.892485
