19
Iteration:  2003
 C         1.086067         0.228688        -0.728927
 C        -0.183640        -0.113805        -0.112757
 C        -1.287480        -0.158888         0.380732
 C        -2.700418         0.029062         0.594002
 O        -3.133576         0.041216         2.053109
 C        -3.141880         1.309673        -0.141037
 C        -4.554426         1.273999        -0.750023
 C        -4.831387         1.207605        -2.219559
 O        -5.005852         2.360440        -1.461956
 H         1.937682         0.520416        -0.000102
 H         1.643530        -0.641195        -1.289412
 H         0.917564         1.043147        -1.573243
 H        -3.188985        -0.837187         0.161932
 H        -2.916432         1.015068         2.272066
 H        -3.109401         2.211730         0.494083
 H        -2.522790         1.626613        -0.933143
 H        -5.428945         0.937544        -0.137529
 H        -3.933184         1.049828        -2.863690
 H        -5.803965         0.912619        -2.568886
