19
Iteration:     2charge 0 multiplicity 1
 C         1.509709        -0.054150         0.044124
 C         0.051208        -0.021821        -0.028168
 C        -1.154829        -0.029948        -0.087078
 C        -2.608985        -0.001964        -0.125288
 O        -3.182638        -0.613557         1.028533
 C        -3.133147         1.447237        -0.317710
 C        -4.651296         1.466928        -0.402568
 C        -5.348147         1.513883        -1.691292
 O        -5.206777         2.696975        -0.898596
 H         1.850825        -0.809566         0.757688
 H         1.948707        -0.314449        -0.915749
 H         1.903625         0.922455         0.332777
 H        -2.991876        -0.617783        -0.964185
 H        -2.690337        -0.331508         1.805623
 H        -2.779366         2.002700         0.547319
 H        -2.699931         1.868773        -1.187870
 H        -5.176124         1.058259         0.433323
 H        -4.793173         1.518755        -2.582170
 H        -6.317957         1.112116        -1.747691
