19
Iteration:  3195charge 0 multiplicity 1
 C         1.274233         0.001417        -0.441365
 C        -0.176159        -0.100358        -0.215431
 C        -1.287909        -0.083565         0.180518
 C        -2.659458         0.059556         0.493423
 O        -2.887373        -0.018240         1.954060
 C        -3.352543         1.434395        -0.044524
 C        -4.616717         1.187767        -0.836142
 C        -4.675845         1.542741        -2.283058
 O        -5.333560         2.345134        -1.300845
 H         1.561991         0.649444         0.393972
 H         1.732514        -1.070075        -0.159752
 H         1.483807         0.277375        -1.551480
 H        -3.222085        -0.724908        -0.045723
 H        -3.479677        -0.725643         2.192341
 H        -3.627468         2.062750         0.830111
 H        -2.700263         1.985376        -0.757322
 H        -5.252801         0.345133        -0.373646
 H        -3.837037         2.050067        -2.830302
 H        -5.185357         1.010657        -3.107330
