19
Iteration:  2776
 C         0.599933         0.190806        -1.200608
 C        -0.614763         0.015342        -0.418437
 C        -1.687648        -0.067597         0.193890
 C        -2.989830        -0.073043         0.910994
 O        -2.516236         0.181145         2.294044
 C        -3.965449         0.963041         0.390475
 C        -4.164712         0.971401        -1.110347
 C        -3.590051         2.035226        -1.926261
 O        -4.990806         2.031563        -1.664255
 H         0.304839         0.584721        -2.190175
 H         1.218772         1.038620        -0.870283
 H         1.175598        -0.735506        -1.102482
 H        -3.444496        -1.044371         0.931131
 H        -3.337955         0.548780         2.592721
 H        -4.935047         0.826572         0.995249
 H        -3.384491         1.933203         0.797765
 H        -4.137475        -0.047889        -1.617763
 H        -3.159273         2.880409        -1.487408
 H        -3.218291         1.768879        -2.922595
