19
Iteration:  2339
 C         1.430351        -0.056891         0.609524
 C         0.039481         0.050128         0.191554
 C        -1.175017         0.066135        -0.185683
 C        -2.620476        -0.026327        -0.422079
 O        -3.149532        -0.169953         0.869840
 C        -2.937157         1.428557        -0.905467
 C        -4.331317         1.807218        -0.418130
 C        -5.574269         1.020126        -0.817235
 O        -5.379565         2.315296        -1.387743
 H         1.488222        -1.180616         0.730383
 H         1.982241         0.269623        -0.287866
 H         1.794503         0.631383         1.427556
 H        -2.986827        -0.777538        -1.081750
 H        -2.439681        -0.213426         1.582895
 H        -2.193188         2.129876        -0.604366
 H        -2.906236         1.439230        -1.964318
 H        -4.233084         2.444539         0.496920
 H        -5.665041         0.111232        -1.425004
 H        -6.360269         0.944504         0.017866
