19
Iteration:  2047
 C         1.266643         0.115747        -0.553637
 C        -0.013461        -0.016933         0.084912
 C        -1.189236        -0.051128         0.322012
 C        -2.699450        -0.032652         0.446232
 O        -3.050963        -0.021733         1.832873
 C        -3.180854         1.356965        -0.328339
 C        -4.735338         1.404143        -0.586118
 C        -5.139198         1.092211        -2.042898
 O        -4.978839         2.452524        -1.517586
 H         2.121524        -0.002413         0.218279
 H         1.407765        -0.925530        -1.088638
 H         1.355541         1.038471        -1.270031
 H        -2.999940        -0.927362        -0.076680
 H        -3.816564         0.605612         2.041949
 H        -2.838161         2.188260         0.337882
 H        -2.591209         1.441929        -1.208882
 H        -5.359858         1.179113         0.335551
 H        -4.360586         0.894363        -2.823600
 H        -6.137344         0.787162        -2.334797
