19
Iteration:   694charge 0 multiplicity 1
 C         1.395859        -0.104725        -0.049178
 C        -0.072391        -0.247380        -0.333722
 C        -1.209576         0.083172        -0.097056
 C        -2.660861         0.116476         0.156465
 O        -2.995227        -0.291406         1.496083
 C        -3.206807         1.538661        -0.064644
 C        -4.700379         1.549676        -0.503544
 C        -5.018631         1.252001        -1.899013
 O        -5.295952         2.527301        -1.286614
 H         1.968736         0.652977        -0.682008
 H         1.598361         0.232989         1.030082
 H         2.041070        -1.030210        -0.255874
 H        -3.213161        -0.652701        -0.412461
 H        -2.651238        -1.171597         1.604394
 H        -3.205004         1.915235         1.062175
 H        -2.751399         2.383441        -0.673984
 H        -5.396899         1.248588         0.354926
 H        -4.165582         1.360706        -2.592570
 H        -5.893759         0.626292        -2.040840
