19
Iteration:  2451
 C         1.427862         0.211684        -0.073349
 C        -0.004568         0.074196         0.177994
 C        -1.173211        -0.122999         0.036644
 C        -2.680617        -0.099912         0.013899
 O        -3.207516        -0.384871         1.289450
 C        -3.186398         1.277122        -0.469061
 C        -4.567216         1.677529        -0.396611
 C        -5.419979         1.190654        -1.482635
 O        -4.968066         2.550444        -1.510959
 H         1.793244        -0.733326        -0.480544
 H         1.839281         1.012168        -0.706332
 H         1.960118         0.358200         0.894461
 H        -3.082730        -0.853777        -0.593009
 H        -2.668815         0.055368         1.965174
 H        -2.600645         1.887102         0.214430
 H        -2.733956         1.448137        -1.406987
 H        -5.014831         1.875859         0.576489
 H        -5.018249         0.461152        -2.264563
 H        -6.412141         0.928069        -1.084941
