19
Iteration:  3335charge 0 multiplicity 1
 C         1.440262         0.029292        -0.195552
 C         0.064980        -0.026904         0.177303
 C        -1.172086        -0.137012         0.189381
 C        -2.630238         0.063397         0.168408
 O        -3.206436        -0.263882         1.495503
 C        -3.121099         1.383321        -0.442534
 C        -4.651121         1.515595        -0.575945
 C        -5.424142         1.204141        -1.732999
 O        -5.015119         2.519534        -1.465520
 H         2.015812         0.207229         0.694661
 H         1.847390        -0.790761        -0.707155
 H         1.550448         0.964024        -0.792187
 H        -3.162294        -0.674957        -0.478161
 H        -2.811531         0.373802         2.077273
 H        -2.811256         2.225760         0.252852
 H        -2.692843         1.569789        -1.467178
 H        -5.046618         1.491307         0.459260
 H        -4.988091         0.852838        -2.668145
 H        -6.428915         0.892605        -1.641593
