19
Iteration:  1026
 C         1.465785        -0.213042         0.004331
 C         0.095248         0.157792         0.177830
 C        -1.103768         0.116627         0.198495
 C        -2.617256         0.018248        -0.113092
 O        -3.347895        -0.293790         1.095438
 C        -3.043928         1.382760        -0.675435
 C        -4.520626         1.626377        -0.390391
 C        -5.456797         1.090075        -1.373626
 O        -5.135481         2.550280        -1.260868
 H         2.094878        -0.300590         0.955091
 H         1.444973        -1.163644        -0.613598
 H         1.946894         0.579796        -0.648338
 H        -2.754553        -0.942394        -0.784676
 H        -2.912121         0.087345         1.869256
 H        -2.366831         2.163570        -0.226958
 H        -3.159413         1.616228        -1.765502
 H        -4.887979         1.898582         0.543025
 H        -5.003504         0.531308        -2.190369
 H        -6.493284         0.876412        -1.166891
