19
Iteration:  2858
 C         0.003898         0.311897        -1.746261
 C        -0.815733         0.246040        -0.502103
 C        -1.561478         0.279136         0.493950
 C        -2.887754        -0.081788         0.998569
 O        -3.031989         0.184526         2.366926
 C        -3.960921         0.875721         0.425371
 C        -3.974782         0.819916        -1.006283
 C        -3.134079         1.803158        -1.693435
 O        -4.527977         1.950926        -1.750356
 H        -0.544898         0.750201        -2.607719
 H         0.949155         0.906320        -1.492709
 H         0.202664        -0.658599        -2.212485
 H        -3.215852        -1.109571         0.909230
 H        -2.119622         0.001749         2.689461
 H        -4.908577         0.421845         0.920355
 H        -3.801534         1.866049         0.886818
 H        -4.226837        -0.134328        -1.410676
 H        -2.627132         2.696317        -1.146651
 H        -2.758298         1.631280        -2.749956
