19
Iteration:  3524charge 0 multiplicity 1
 C         1.449334        -0.425130         0.582031
 C         0.151243         0.091149         0.188459
 C        -1.071061         0.174310        -0.090406
 C        -2.455695         0.252105        -0.311467
 O        -3.285333        -0.012415         0.909455
 C        -2.968785         1.634953        -0.960968
 C        -4.481946         1.836495        -0.415107
 C        -5.598601         0.911323        -0.737558
 O        -5.327844         2.131614        -1.530099
 H         1.384298        -1.319999         1.136173
 H         2.130355        -0.772629        -0.304977
 H         2.152590         0.208866         1.136612
 H        -2.769989        -0.551253        -1.024888
 H        -3.051834        -0.963267         1.031469
 H        -2.379408         2.646405        -0.820698
 H        -3.187437         1.224134        -1.967338
 H        -4.599943         2.468369         0.487390
 H        -5.561745         0.070385        -1.387504
 H        -6.600142         0.983309        -0.176070
