19
Iteration:  1302charge 0 multiplicity 1
 C         1.023700        -0.157599        -0.939965
 C        -0.254173        -0.087077        -0.308911
 C        -1.300437         0.025303         0.399098
 C        -2.762595         0.216938         0.731604
 O        -3.071657        -0.027012         2.088319
 C        -3.436556         1.504428         0.221481
 C        -4.377180         1.214168        -0.888896
 C        -4.391407         1.519405        -2.348957
 O        -5.177303         2.240425        -1.397113
 H         1.185313        -1.164563        -1.475371
 H         1.118235         0.575916        -1.837649
 H         1.918839        -0.133599        -0.204083
 H        -3.319853        -0.630385         0.316725
 H        -2.606138        -0.691954         2.561788
 H        -3.874279         1.877540         1.182507
 H        -2.849868         2.355911        -0.133901
 H        -5.060162         0.346597        -0.733879
 H        -3.566254         1.981344        -2.824932
 H        -4.976699         0.837591        -3.006737
