19
Iteration:  3013charge 0 multiplicity 1
 C         0.712093         0.174797        -1.056064
 C        -0.530851         0.128610        -0.329673
 C        -1.621366        -0.020698         0.183813
 C        -2.923608        -0.007900         0.899195
 O        -2.670862         0.065394         2.358746
 C        -3.881404         1.117776         0.424721
 C        -4.271931         1.013694        -1.071555
 C        -3.755107         1.705354        -2.235077
 O        -5.015205         2.168485        -1.644272
 H         1.094075         1.150432        -1.347171
 H         1.525504        -0.429769        -0.622692
 H         0.735607        -0.390307        -1.973028
 H        -3.492375        -0.937303         0.787986
 H        -1.699766         0.180490         2.424363
 H        -4.969183         1.004686         0.863856
 H        -3.576365         2.120878         0.729152
 H        -4.569608         0.002436        -1.396182
 H        -2.919473         2.434717        -2.071794
 H        -3.876884         1.370074        -3.322459
