19
Iteration:   265charge 0 multiplicity 1
 C         1.581978        -0.313990         0.323267
 C         0.201881         0.108945         0.042546
 C        -1.030184         0.118415         0.025662
 C        -2.540996         0.136919        -0.275652
 O        -3.063813        -0.567026         0.845918
 C        -3.070276         1.503627        -0.547326
 C        -4.613466         1.730729        -0.334236
 C        -5.723311         1.179845        -1.142877
 O        -5.331016         2.590671        -1.304071
 H         1.697753        -1.327417        -0.083502
 H         2.375095         0.314422        -0.052872
 H         1.696489        -0.434550         1.406397
 H        -2.705959        -0.505520        -1.238949
 H        -3.860919        -0.041484         1.157170
 H        -2.558039         2.351130        -0.041483
 H        -2.950850         1.635064        -1.586407
 H        -4.835360         2.043038         0.633290
 H        -5.515718         0.625141        -2.024199
 H        -6.683693         0.978956        -0.689079
