19
Iteration:   369
 C         1.635604        -0.079475         0.030285
 C         0.113939        -0.284821        -0.149741
 C        -1.100489        -0.033817        -0.070338
 C        -2.568197         0.123531        -0.097993
 O        -3.277133        -0.238581         1.384883
 C        -3.091845         1.559234        -0.271196
 C        -4.697699         1.711213        -0.379749
 C        -5.287228         1.105526        -1.597493
 O        -5.316374         2.541064        -1.314299
 H         2.245469        -0.329176        -0.856153
 H         1.831474         0.986084         0.267138
 H         1.997813        -0.633579         0.928183
 H        -3.007723        -0.530302        -0.930301
 H        -3.875648        -0.968905         1.166941
 H        -2.841409         2.340808         0.444140
 H        -2.689450         1.935582        -1.305211
 H        -5.212907         1.466977         0.671614
 H        -4.670264         0.570366        -2.383957
 H        -6.329715         0.701539        -1.436236
