19
Iteration:  2298
 C         1.491371        -0.227637         0.788028
 C         0.213092        -0.081318         0.057675
 C        -1.008021         0.052657        -0.224908
 C        -2.454484         0.263169        -0.401370
 O        -3.174036        -0.085525         0.814721
 C        -3.084859         1.524831        -1.066939
 C        -4.481130         1.843298        -0.387346
 C        -5.655546         0.992376        -0.687728
 O        -5.457731         2.232779        -1.374157
 H         1.546326        -1.092330         1.393116
 H         2.346836        -0.109438         0.155650
 H         1.598034         0.463454         1.620859
 H        -2.714826        -0.561518        -1.147930
 H        -2.595981        -0.758573         1.160929
 H        -2.256599         2.376733        -1.239368
 H        -3.467886         1.141852        -2.036686
 H        -4.592806         2.367019         0.586556
 H        -5.530341         0.113561        -1.350253
 H        -6.472477         0.893135         0.111681
