19
Iteration:  2128
 C         1.520947        -0.189815         0.095789
 C         0.101371        -0.048074         0.122854
 C        -1.112632         0.059445        -0.085445
 C        -2.596555         0.160542        -0.007965
 O        -3.099913         0.005352         1.416278
 C        -3.113998         1.491583        -0.484622
 C        -4.648254         1.666604        -0.409013
 C        -5.519457         0.953381        -1.500919
 O        -5.256632         2.350944        -1.558914
 H         1.959997        -0.493689         1.098202
 H         1.964867        -0.780921        -0.758300
 H         1.958011         0.841216        -0.123580
 H        -2.966422        -0.676535        -0.621218
 H        -2.806507        -0.889907         1.728264
 H        -2.602678         2.317742        -0.022264
 H        -2.817912         1.530801        -1.579303
 H        -5.011214         1.944838         0.567927
 H        -4.945133         0.191288        -2.061494
 H        -6.606055         0.792415        -1.457997
