19
Iteration:   692charge 0 multiplicity 1
 C         1.400682        -0.108086        -0.048725
 C        -0.068235        -0.238199        -0.354499
 C        -1.218051         0.090496        -0.099024
 C        -2.668163         0.131269         0.170431
 O        -3.006021        -0.288999         1.513676
 C        -3.217966         1.529119        -0.057658
 C        -4.690901         1.543809        -0.488918
 C        -5.016774         1.248915        -1.924681
 O        -5.281543         2.528834        -1.278007
 H         1.982563         0.610530        -0.670141
 H         1.567226         0.244296         1.003637
 H         2.021686        -1.015163        -0.270810
 H        -3.154742        -0.668532        -0.457214
 H        -2.632048        -1.169593         1.571172
 H        -3.182061         1.893200         1.020561
 H        -2.793879         2.316550        -0.675147
 H        -5.355462         1.219332         0.337437
 H        -4.161274         1.328263        -2.621858
 H        -5.939344         0.631793        -2.112145
