19
Iteration:  2811
 C         0.362052         0.227477        -1.500842
 C        -0.726109         0.183840        -0.509575
 C        -1.612930         0.074396         0.302013
 C        -2.909857        -0.026787         1.035012
 O        -2.747504         0.186357         2.512607
 C        -4.010376         0.826221         0.371369
 C        -4.025636         0.931770        -1.148366
 C        -3.404591         1.984524        -1.943967
 O        -4.797836         2.031877        -1.657837
 H         0.054971         0.388354        -2.512473
 H         1.169458         0.835345        -1.124953
 H         0.771389        -0.781111        -1.668286
 H        -3.247651        -1.026970         0.944549
 H        -3.211797        -0.387861         3.104761
 H        -5.038963         0.433094         0.779610
 H        -3.827926         1.858430         0.927235
 H        -4.096252         0.001312        -1.727530
 H        -2.845871         2.817806        -1.494154
 H        -3.051013         1.546091        -2.884697
