19
Iteration:  4659
 C         0.963563        -0.569954        -0.673430
 C        -0.376938        -0.291660        -0.322941
 C        -1.594756        -0.053666         0.080909
 C        -2.870417         0.231588         0.841201
 O        -2.506640         0.575565         2.168618
 C        -3.771488         1.423815         0.342161
 C        -4.354689         1.170536        -1.102502
 C        -4.034448         1.930515        -2.220429
 O        -5.430181         1.889862        -1.639062
 H         1.569452         0.302871        -0.913221
 H         1.564473        -1.150034         0.157698
 H         1.220521        -1.147514        -1.615814
 H        -3.558846        -0.664753         0.739326
 H        -1.638691         0.060976         2.478211
 H        -4.599939         1.937327         0.963242
 H        -3.125611         2.277484         0.256846
 H        -4.382550         0.060569        -1.358296
 H        -3.601804         2.921534        -2.117162
 H        -3.991613         1.455217        -3.127970
