19
Iteration:  4905charge 0 multiplicity 1
 C         0.955641        -0.180046        -1.021440
 C        -0.453386        -0.100587        -0.272073
 C        -1.600060         0.134080         0.195057
 C        -2.932313         0.158685         0.757089
 O        -2.712501         0.183881         2.265344
 C        -3.852276         1.446729         0.430121
 C        -4.732893         1.497161        -0.807898
 C        -4.336418         0.885478        -2.111350
 O        -4.346553         2.355298        -1.907934
 H         1.670487         0.651093        -0.682613
 H         1.451172        -1.136952        -0.874577
 H         0.727290        -0.113615        -2.109196
 H        -3.558958        -0.742367         0.606268
 H        -2.084802        -0.447379         2.579459
 H        -4.536528         1.658977         1.193541
 H        -3.075304         2.242715         0.281934
 H        -5.793550         1.623971        -0.551397
 H        -3.348749         0.510310        -2.025194
 H        -5.054974         0.632366        -2.898412
