19
Iteration:  4874
 C         0.926030        -0.267788        -0.867417
 C        -0.462485         0.010585        -0.257974
 C        -1.622345         0.087540         0.092155
 C        -2.870796         0.236952         0.681721
 O        -2.825995         0.215965         2.147407
 C        -3.609296         1.510137         0.401596
 C        -4.538928         1.327474        -0.780206
 C        -4.367595         0.958772        -2.099434
 O        -4.554168         2.346141        -1.793020
 H         1.628678         0.563916        -0.623585
 H         1.275214        -1.204551        -0.549393
 H         0.639215        -0.296030        -1.937994
 H        -3.618795        -0.555355         0.207036
 H        -2.219200        -0.541036         2.455669
 H        -4.253363         1.606261         1.246036
 H        -2.975687         2.370315         0.314684
 H        -5.521265         1.204248        -0.323816
 H        -3.305841         0.623135        -2.385956
 H        -4.997197         0.480083        -2.846063
