19
Iteration:  1539
 C         0.363950        -0.021553        -1.536387
 C        -0.778887        -0.027383        -0.649927
 C        -1.601546        -0.045551         0.331089
 C        -2.879678         0.083749         1.086238
 O        -2.861299         0.622069         2.432164
 C        -4.002255         0.792874         0.354643
 C        -4.119901         0.871380        -1.087445
 C        -3.350607         1.832643        -1.810939
 O        -4.681492         2.071288        -1.618659
 H        -0.022031         0.127466        -2.633920
 H         1.108345         0.857193        -1.391376
 H         0.780076        -1.080757        -1.529695
 H        -3.139823        -0.923726         1.409758
 H        -2.423420         1.464390         2.402714
 H        -4.978678         0.395995         0.683176
 H        -3.989823         1.810744         0.871570
 H        -4.539141         0.013864        -1.620811
 H        -2.615899         2.538546        -1.287164
 H        -3.049460         1.462351        -2.877859
