19
Iteration:  2881charge 0 multiplicity 1
 C        -0.117994         0.398417        -1.727749
 C        -0.785132         0.284908        -0.454450
 C        -1.608908         0.137966         0.392223
 C        -2.888094         0.000718         1.089796
 O        -2.902063         0.038232         2.582940
 C        -4.046767         0.869003         0.419793
 C        -3.962240         0.863406        -1.101327
 C        -3.039910         1.799019        -1.773387
 O        -4.523673         1.971897        -1.836955
 H        -0.742907         0.876580        -2.548279
 H         0.918487         0.860318        -1.593738
 H        -0.098588        -0.620287        -2.160487
 H        -3.283726        -1.019795         0.950732
 H        -2.316603         0.799392         2.661928
 H        -4.983594         0.491278         0.914215
 H        -4.013112         1.930195         0.583187
 H        -4.164720        -0.076111        -1.628937
 H        -2.447424         2.575298        -1.202129
 H        -2.640994         1.359749        -2.756642
