19
Iteration:  3814charge 0 multiplicity 1
 C         1.334699        -0.185238        -0.508534
 C        -0.088404        -0.177362        -0.012495
 C        -1.160388         0.046969         0.497805
 C        -2.629982         0.140542         0.434311
 O        -3.156272         0.326257         1.832990
 C        -3.174806         1.337221        -0.276580
 C        -4.585436         1.192212        -0.806709
 C        -5.159945         1.221111        -2.195721
 O        -5.123559         2.387376        -1.378598
 H         1.533277        -1.164524        -1.117269
 H         1.526380         0.725084        -1.144769
 H         2.029848        -0.144511         0.400034
 H        -3.044629        -0.813535         0.112846
 H        -2.314440         0.336026         2.240574
 H        -3.253645         2.034720         0.629160
 H        -2.636581         1.651703        -1.143354
 H        -5.236003         0.685743        -0.009974
 H        -4.502608         1.295673        -3.029757
 H        -6.052177         0.673745        -2.511102
