19
Iteration:  1711
 C         0.387214         0.077691        -1.368604
 C        -0.663344        -0.081358        -0.367223
 C        -1.561349        -0.129803         0.406609
 C        -2.889728        -0.004780         1.087836
 O        -2.694483         0.463484         2.454794
 C        -3.770696         1.043880         0.392946
 C        -4.148634         1.038868        -1.137686
 C        -3.561816         1.845801        -2.252661
 O        -4.944765         2.022526        -1.684974
 H         0.423308         1.049497        -1.843874
 H         1.325766        -0.234099        -0.937580
 H         0.362417        -0.646570        -2.161002
 H        -3.517731        -0.910420         1.083307
 H        -2.628580        -0.361697         3.020052
 H        -4.818027         0.919608         0.799273
 H        -3.247891         2.040528         0.630709
 H        -4.679341         0.077587        -1.317434
 H        -3.098382         2.873684        -2.110809
 H        -3.373665         1.525060        -3.323947
