19
Iteration:  1729charge 0 multiplicity 1
 C         0.530962         0.017859        -1.273729
 C        -0.671804         0.004404        -0.330975
 C        -1.611917        -0.205745         0.409678
 C        -2.835364        -0.035907         1.006661
 O        -2.680830         0.505278         2.341698
 C        -3.819924         1.054248         0.348380
 C        -4.175342         0.924715        -1.144478
 C        -3.710718         1.822441        -2.161227
 O        -4.953854         2.177444        -1.672143
 H         0.636713         1.044252        -1.625912
 H         1.478239        -0.296418        -0.781537
 H         0.247082        -0.636906        -2.123509
 H        -3.338832        -0.995937         1.110372
 H        -2.130199        -0.116241         2.920354
 H        -4.771849         1.027946         0.924969
 H        -3.281847         1.963994         0.477470
 H        -4.501380        -0.073427        -1.492125
 H        -2.821563         2.360981        -1.930289
 H        -3.819080         1.414406        -3.158875
