19
Iteration:  4697
 C         1.011558        -0.511477        -0.661464
 C        -0.420826        -0.337476        -0.172466
 C        -1.498531         0.020617         0.125042
 C        -2.768700         0.214401         0.738647
 O        -2.608338         0.601674         2.109603
 C        -3.721977         1.308742         0.181223
 C        -4.405852         1.014871        -1.106701
 C        -4.154241         1.804919        -2.388291
 O        -5.315614         2.163138        -1.386234
 H         1.426710         0.527066        -0.759542
 H         1.516942        -1.116716         0.082301
 H         0.913491        -1.008163        -1.619032
 H        -3.288002        -0.751817         0.713304
 H        -2.016305        -0.021538         2.613557
 H        -4.401607         1.421044         1.016346
 H        -3.173212         2.310544         0.052202
 H        -4.723380        -0.022959        -1.246953
 H        -3.321819         2.516320        -2.370365
 H        -4.642194         1.339181        -3.366871
