19
Iteration:  4139charge 0 multiplicity 1
 C         0.903565        -0.019077        -0.939051
 C        -0.408098        -0.006610        -0.354323
 C        -1.363912        -0.060853         0.383059
 C        -2.757627         0.197363         0.825231
 O        -2.920187         0.351986         2.225362
 C        -3.517828         1.463848         0.201834
 C        -4.575115         1.241136        -0.769157
 C        -4.461101         0.955384        -2.207792
 O        -4.789486         2.217110        -1.812110
 H         0.938152        -0.132645        -2.046956
 H         1.519797         0.857004        -0.609976
 H         1.414704        -0.916617        -0.599136
 H        -3.401649        -0.560928         0.327232
 H        -2.442577        -0.337446         2.713728
 H        -3.727897         2.044355         1.100320
 H        -2.633093         2.124962        -0.203552
 H        -5.507511         0.896066        -0.317707
 H        -3.425228         0.964932        -2.690290
 H        -5.205442         0.302367        -2.686283
