19
Iteration:  2146
 C         1.594294        -0.182950         0.239314
 C         0.120281        -0.103379         0.174382
 C        -1.121333         0.003587        -0.123699
 C        -2.574653         0.131136        -0.069249
 O        -3.094268         0.000077         1.238331
 C        -3.142641         1.562667        -0.557336
 C        -4.627474         1.699529        -0.469733
 C        -5.537748         0.884884        -1.316857
 O        -5.346125         2.382887        -1.556665
 H         1.889534        -0.780734         1.129441
 H         1.987819        -0.838926        -0.600603
 H         2.107720         0.776540        -0.012896
 H        -3.102732        -0.591590        -0.698595
 H        -2.266704        -0.144900         1.751409
 H        -2.702745         2.268203         0.169286
 H        -2.801447         1.944327        -1.522198
 H        -5.038795         1.985064         0.534199
 H        -5.113986         0.371386        -2.166141
 H        -6.445767         0.534619        -0.766183
