19
Iteration:  3008
 C         0.685283         0.191277        -1.075660
 C        -0.540575         0.112007        -0.335910
 C        -1.651232        -0.051029         0.229302
 C        -2.933151        -0.005999         0.897360
 O        -2.661130         0.092468         2.356674
 C        -3.896326         1.116362         0.446575
 C        -4.244364         1.005425        -1.084790
 C        -3.696051         1.725371        -2.239686
 O        -5.018311         2.157960        -1.645422
 H         1.027434         1.214285        -1.338611
 H         1.622695        -0.238103        -0.653415
 H         0.523258        -0.361931        -2.054527
 H        -3.400307        -1.018202         0.716481
 H        -1.701537        -0.056050         2.402115
 H        -4.869975         0.953413         0.838721
 H        -3.570998         2.142310         0.720279
 H        -4.710345         0.029805        -1.327291
 H        -2.933807         2.483692        -2.210438
 H        -3.789516         1.311514        -3.230281
