19
Iteration:  4668
 C         1.043900        -0.549926        -0.674160
 C        -0.446461        -0.340921        -0.261727
 C        -1.550427        -0.005954         0.057996
 C        -2.882757         0.238531         0.810303
 O        -2.505640         0.581632         2.192291
 C        -3.751140         1.427308         0.219141
 C        -4.398523         1.062035        -1.069974
 C        -4.037270         1.927475        -2.232207
 O        -5.469329         1.980567        -1.604379
 H         1.588524         0.417244        -0.796356
 H         1.610362        -1.103333         0.069716
 H         1.045883        -1.171688        -1.592563
 H        -3.516669        -0.697803         0.798952
 H        -1.753095        -0.019308         2.576658
 H        -4.354383         1.584396         1.173258
 H        -2.989193         2.170695         0.047915
 H        -4.425367        -0.027836        -1.232425
 H        -3.403402         2.788411        -2.091043
 H        -3.938292         1.561377        -3.278415
