19
Iteration:   919charge 0 multiplicity 1
 C         1.231263         0.005853         0.542569
 C        -0.047072         0.026305        -0.120464
 C        -1.204911        -0.155812        -0.376251
 C        -2.667359         0.012033        -0.234537
 O        -2.909584        -0.236263         1.166633
 C        -3.014546         1.320685        -0.761135
 C        -4.477700         1.615254        -0.412837
 C        -5.564268         1.228451        -1.168161
 O        -5.121941         2.558117        -1.232753
 H         1.145099         0.700563         1.359504
 H         1.421004        -0.924388         1.061739
 H         2.095077         0.246484        -0.049306
 H        -3.154633        -0.699331        -0.852359
 H        -2.040211        -0.245351         1.629703
 H        -2.248813         2.066110        -0.556120
 H        -3.267158         1.339265        -1.850265
 H        -4.686793         1.582755         0.762493
 H        -5.305318         0.754863        -2.136497
 H        -6.509827         0.990306        -0.697224
