19
Iteration:  3345charge 0 multiplicity 1
 C         1.556065         0.077158        -0.127207
 C         0.020429        -0.114023         0.215127
 C        -1.219390        -0.090123         0.091883
 C        -2.679388         0.053833         0.144923
 O        -3.209186        -0.234568         1.470692
 C        -3.141380         1.384284        -0.454584
 C        -4.568339         1.556527        -0.520537
 C        -5.434111         1.126537        -1.700879
 O        -5.055171         2.561565        -1.494007
 H         2.234299         0.119790         0.720947
 H         1.807270        -0.725796        -0.731491
 H         1.606189         0.921573        -0.828665
 H        -3.043707        -0.846808        -0.373759
 H        -2.568411        -0.039913         2.136416
 H        -2.654980         2.164513         0.122687
 H        -2.730082         1.506093        -1.473123
 H        -5.280402         1.558597         0.327069
 H        -5.080465         0.697205        -2.632073
 H        -6.463855         1.072399        -1.415247
