19
Iteration:  2226charge 0 multiplicity 1
 C         1.381909        -0.429417         0.668291
 C         0.113435         0.120061         0.138500
 C        -1.031603         0.181751        -0.166283
 C        -2.489800         0.219891        -0.451093
 O        -3.042746        -0.057920         0.870509
 C        -3.057116         1.544751        -0.964766
 C        -4.496969         1.818482        -0.439010
 C        -5.594242         0.853034        -0.795754
 O        -5.456245         2.240153        -1.345110
 H         1.191713        -1.126691         1.534852
 H         2.108946        -0.707721        -0.158739
 H         1.979672         0.316776         1.281908
 H        -2.789250        -0.506091        -1.161684
 H        -2.278848         0.140069         1.455707
 H        -2.504784         2.417326        -0.759925
 H        -3.118363         1.493507        -2.077484
 H        -4.521450         2.184637         0.584349
 H        -5.529119         0.059303        -1.549279
 H        -6.464485         0.708466        -0.198788
