19
Iteration:  4335charge 0 multiplicity 1
 C         0.492845        -0.203741        -1.207756
 C        -0.693389        -0.079136        -0.390378
 C        -1.655594         0.184013         0.301897
 C        -2.869244         0.226373         1.013325
 O        -2.556509         0.629718         2.377837
 C        -4.045083         1.197023         0.344041
 C        -4.434301         0.850177        -1.062322
 C        -3.638441         1.313620        -2.195191
 O        -4.645073         2.160794        -1.660073
 H         0.514554         0.343323        -2.206839
 H         1.483396         0.083414        -0.690973
 H         0.604290        -1.283360        -1.447913
 H        -3.204436        -0.796927         1.225071
 H        -1.732832         0.994499         2.583889
 H        -4.968949         1.085356         0.871335
 H        -3.643670         2.236479         0.195295
 H        -5.131276         0.074055        -1.088494
 H        -2.626939         1.623251        -2.112869
 H        -3.928534         0.737930        -3.168751
