19
Iteration:   525charge 0 multiplicity 1
 C         1.201663         0.047537        -0.510774
 C        -0.118247         0.055866        -0.037085
 C        -1.285578        -0.202220         0.119453
 C        -2.705420         0.004280         0.334880
 O        -3.096783        -0.136741         1.695107
 C        -3.147353         1.448185        -0.152228
 C        -4.536276         1.362505        -0.573288
 C        -4.789564         1.382309        -2.073316
 O        -5.203954         2.451486        -1.191701
 H         1.220704         0.203813        -1.593994
 H         1.885416         0.710537        -0.005252
 H         1.491452        -1.007960        -0.478532
 H        -3.299012        -0.802138        -0.225092
 H        -3.618823        -0.922340         1.686807
 H        -2.983186         2.143006         0.680229
 H        -2.597148         1.869462        -0.991174
 H        -5.184908         0.797398         0.142632
 H        -3.888848         1.539968        -2.725717
 H        -5.639220         0.847882        -2.550367
