19
Iteration:  2320
 C         1.430412        -0.163706         0.684425
 C         0.106458         0.004701         0.069929
 C        -1.044005         0.126509        -0.222868
 C        -2.477417         0.098142        -0.416921
 O        -3.226906        -0.142837         0.877589
 C        -3.048740         1.447371        -0.999433
 C        -4.380988         1.797442        -0.482259
 C        -5.566248         1.017484        -0.690418
 O        -5.442826         2.293113        -1.367585
 H         1.526505        -1.079022         1.205639
 H         2.243109         0.091859         0.045666
 H         1.458468         0.517205         1.534980
 H        -2.752465        -0.745668        -1.060457
 H        -2.639779        -0.485287         1.614873
 H        -2.243030         2.176548        -0.584755
 H        -2.910480         1.384438        -2.102308
 H        -4.261822         2.289254         0.503869
 H        -5.493790         0.155595        -1.393500
 H        -6.452483         0.950860        -0.003541
