19
Iteration:  3319charge 0 multiplicity 1
 C         1.427450         0.054182        -0.248721
 C        -0.021764         0.052501         0.012367
 C        -1.214910        -0.093850         0.345324
 C        -2.588793        -0.030720         0.244760
 O        -3.191012        -0.235682         1.493884
 C        -3.067711         1.370259        -0.352221
 C        -4.613159         1.427765        -0.550721
 C        -5.359521         1.217197        -1.872819
 O        -5.050634         2.565476        -1.415906
 H         1.997921         0.070263         0.745491
 H         1.588643        -1.000057        -0.711515
 H         1.680108         0.679952        -1.108552
 H        -2.894884        -0.921950        -0.329652
 H        -3.380883         0.630221         1.835030
 H        -2.717756         2.163195         0.265432
 H        -2.618786         1.470683        -1.325155
 H        -5.272134         1.398822         0.307054
 H        -4.747753         0.719509        -2.664677
 H        -6.499267         1.135161        -1.925383
