19
Iteration:  4238charge 0 multiplicity 1
 C         0.700628        -0.010037        -0.999657
 C        -0.611574         0.003929        -0.432978
 C        -1.781083         0.174052         0.016156
 C        -2.966789         0.213517         0.974826
 O        -2.698798         0.301862         2.326775
 C        -3.628646         1.540786         0.460348
 C        -4.455731         1.196674        -0.820256
 C        -3.973580         0.855721        -2.167742
 O        -4.616200         2.106939        -1.872157
 H         0.769664         0.239501        -2.136666
 H         1.428450         0.667741        -0.456448
 H         1.105508        -1.031664        -0.964132
 H        -3.608797        -0.660313         0.721508
 H        -1.821730        -0.001570         2.421765
 H        -4.361416         1.809693         1.229829
 H        -2.802487         2.357515         0.342655
 H        -5.398130         0.839753        -0.508980
 H        -2.942491         0.989481        -2.374799
 H        -4.709254         0.151960        -2.643878
