19
Iteration:  2254charge 0 multiplicity 1
 C         1.397669        -0.381854         0.706682
 C         0.057175         0.017089         0.336953
 C        -0.946407         0.224810        -0.344366
 C        -2.412440         0.233688        -0.452572
 O        -3.044851        -0.047961         0.856565
 C        -2.973229         1.542356        -1.024957
 C        -4.411840         1.777455        -0.525734
 C        -5.722018         0.923275        -0.699159
 O        -5.554705         2.213485        -1.332221
 H         1.526533        -1.197684         1.377043
 H         2.028703        -0.511490        -0.140589
 H         1.760445         0.421765         1.344613
 H        -2.755652        -0.468171        -1.311875
 H        -2.458567        -0.716653         1.190528
 H        -2.620138         2.596536        -0.715537
 H        -2.993203         1.385293        -2.111099
 H        -4.371821         2.257127         0.497109
 H        -5.888568         0.054847        -1.367050
 H        -6.503231         1.086432         0.121563
