19
Iteration:  4613
 C         0.761191        -0.632866        -0.794080
 C        -0.553819        -0.187171        -0.340829
 C        -1.697443         0.192076         0.074994
 C        -2.930484         0.248263         0.949842
 O        -2.475259         0.562520         2.299285
 C        -3.827830         1.375037         0.209329
 C        -4.065051         1.043425        -1.154815
 C        -4.003403         2.122329        -2.233667
 O        -5.244777         1.671280        -1.583123
 H         1.488476         0.176029        -1.194394
 H         1.335905        -1.119224         0.015708
 H         0.876379        -1.328603        -1.666481
 H        -3.520722        -0.732614         0.980219
 H        -1.571666         0.189525         2.401636
 H        -4.671608         1.688450         0.967093
 H        -3.172892         2.260939         0.324635
 H        -3.921628        -0.054852        -1.238797
 H        -3.709803         3.108594        -1.992948
 H        -3.809486         1.729943        -3.305179
