19
Iteration:   497charge 0 multiplicity 1
 C         1.331891         0.063006        -0.452121
 C        -0.045053        -0.160404        -0.090485
 C        -1.227769        -0.039441         0.167991
 C        -2.716425        -0.033910         0.363789
 O        -2.956801        -0.302852         1.732388
 C        -3.242101         1.465707        -0.075223
 C        -4.569629         1.417532        -0.646694
 C        -5.044430         1.355823        -2.097363
 O        -5.196162         2.600603        -1.331714
 H         1.462696         0.219124        -1.539162
 H         1.834568         0.881399         0.120979
 H         1.856132        -0.908930        -0.352099
 H        -3.233650        -0.820706        -0.161305
 H        -3.904771        -0.517918         1.823889
 H        -3.213534         2.085111         0.874493
 H        -2.548307         2.040332        -0.718381
 H        -5.274602         0.862811         0.011522
 H        -4.331373         1.199925        -2.883437
 H        -6.024638         0.967536        -2.348063
