19
Iteration:  2059
 C         1.437916         0.003194        -0.475896
 C        -0.002623         0.111551         0.005742
 C        -1.220623        -0.069846         0.336046
 C        -2.692777         0.003797         0.399898
 O        -3.090330        -0.042607         1.818028
 C        -3.159922         1.295433        -0.326467
 C        -4.696055         1.439376        -0.653809
 C        -5.223711         1.048337        -1.934413
 O        -5.031938         2.505669        -1.517672
 H         2.226989         0.069895         0.370875
 H         1.607347        -0.849604        -1.255974
 H         1.716216         0.959834        -1.115177
 H        -3.177214        -0.865254        -0.048998
 H        -3.940933         0.392758         1.865504
 H        -2.913661         2.124141         0.341988
 H        -2.671660         1.479654        -1.282896
 H        -5.486115         1.470354         0.144874
 H        -4.452109         0.753983        -2.665350
 H        -6.245951         0.666675        -2.093310
