19
Iteration:  3239charge 0 multiplicity 1
 C         1.254573         0.020396        -0.502605
 C        -0.059294        -0.067166         0.079495
 C        -1.208247        -0.097245         0.328866
 C        -2.648060         0.042793         0.378356
 O        -3.111593        -0.074182         1.797269
 C        -3.208186         1.318728        -0.145267
 C        -4.624484         1.286285        -0.829197
 C        -4.922554         1.459329        -2.234889
 O        -5.217847         2.441510        -1.294790
 H         1.878443         0.694091         0.098481
 H         1.712130        -1.035423        -0.685063
 H         1.009425         0.590902        -1.476852
 H        -3.083782        -0.890857        -0.015884
 H        -2.287511        -0.310980         2.198564
 H        -3.322277         1.939322         0.780440
 H        -2.505442         1.900827        -0.785432
 H        -5.223809         0.653253        -0.118407
 H        -4.144975         1.722298        -3.009710
 H        -5.767406         0.894288        -2.640066
