19
Iteration:  3283charge 0 multiplicity 1
 C         1.408323         0.002093        -0.397179
 C        -0.043088         0.073421        -0.087615
 C        -1.187509         0.109421         0.212254
 C        -2.652620         0.002874         0.446485
 O        -3.371165        -0.231685         1.692643
 C        -3.117979         1.260099        -0.321561
 C        -4.649788         1.324695        -0.607111
 C        -5.044040         1.268279        -2.036333
 O        -5.047006         2.533433        -1.283318
 H         2.200847         0.342090         0.274689
 H         1.569041        -1.143347        -0.598903
 H         1.781291         0.651481        -1.258158
 H        -2.991617        -0.863209        -0.181362
 H        -3.636844         0.573864         2.100321
 H        -2.662841         2.154960         0.268929
 H        -2.605667         1.413755        -1.330114
 H        -5.314346         0.828401         0.177861
 H        -4.179926         1.179824        -2.814198
 H        -6.030437         1.134262        -2.413245
