19
Iteration:   589charge 0 multiplicity 1
 C         1.286663         0.002579        -0.605074
 C        -0.042884        -0.217284        -0.114573
 C        -1.110368        -0.000240         0.415263
 C        -2.626825         0.121409         0.467527
 O        -3.188197        -0.283765         1.725656
 C        -3.258286         1.421904        -0.103802
 C        -4.579008         1.300571        -0.698190
 C        -4.980799         1.495263        -2.164368
 O        -5.197680         2.517209        -1.266836
 H         1.254813         0.527740        -1.548490
 H         1.923840         0.550118         0.059535
 H         1.773916        -0.940122        -0.805961
 H        -2.941364        -0.537695        -0.354856
 H        -2.517142        -0.777216         2.202788
 H        -3.461064         2.148437         0.609800
 H        -2.546530         1.861792        -0.773427
 H        -5.426865         0.772523        -0.247689
 H        -4.253355         1.693746        -2.981772
 H        -5.893779         1.064131        -2.574888
