19
Iteration:   168charge 0 multiplicity 1
 C         1.224286        -0.068948         0.461769
 C        -0.099427         0.123043        -0.058610
 C        -1.252964         0.024191        -0.380924
 C        -2.614395         0.052629        -0.345696
 O        -3.219880        -0.588918         0.849568
 C        -2.847245         1.540929        -0.618090
 C        -4.280063         1.779770        -0.243967
 C        -5.323693         1.094478        -1.059779
 O        -5.236461         2.496020        -1.114999
 H         1.432621        -1.143184         0.520405
 H         2.027158         0.358188        -0.127389
 H         1.276012         0.381377         1.448444
 H        -2.864148        -0.555561        -1.179649
 H        -3.732223         0.202226         1.180782
 H        -2.305218         2.236752        -0.010724
 H        -2.696468         1.671599        -1.653001
 H        -4.379233         2.063749         0.849418
 H        -4.949702         0.666293        -1.919028
 H        -6.183987         0.634874        -0.676147
