19
Iteration:   857
 C         1.486473         0.025169         0.364751
 C         0.065762        -0.190460         0.172406
 C        -1.115776        -0.136716        -0.146799
 C        -2.565689         0.036716        -0.295496
 O        -3.094680        -0.192370         1.110951
 C        -3.065379         1.392228        -0.828597
 C        -4.472504         1.615817        -0.418188
 C        -5.744196         1.221087        -1.287667
 O        -5.202922         2.591891        -1.125162
 H         1.704281         1.090464         0.602604
 H         1.934027        -0.667937         1.129146
 H         1.929471        -0.091235        -0.651290
 H        -3.159988        -0.811795        -0.866674
 H        -2.364405        -0.781238         1.465833
 H        -2.403029         2.209516        -0.419954
 H        -3.086640         1.497444        -1.905309
 H        -4.743706         1.489044         0.702466
 H        -5.320730         0.787846        -2.290349
 H        -6.788777         0.916010        -1.005835
