19
Iteration:   403
 C         1.304237        -0.111302        -0.065841
 C        -0.102761         0.110882        -0.078836
 C        -1.292283        -0.035302        -0.041683
 C        -2.677853         0.088760         0.052114
 O        -2.923605        -0.373192         1.480438
 C        -3.092782         1.577001        -0.294226
 C        -4.574809         1.571411        -0.470909
 C        -5.199096         1.113497        -1.718131
 O        -5.150590         2.558367        -1.314331
 H         1.662029        -0.368192        -1.082472
 H         1.893118         0.733708         0.325143
 H         1.496501        -1.011299         0.585308
 H        -3.184390        -0.565727        -0.741234
 H        -3.773295        -0.798788         1.523756
 H        -2.717726         2.305892         0.482760
 H        -2.441561         1.727684        -1.243464
 H        -5.230667         1.335005         0.426891
 H        -4.583386         0.700196        -2.584721
 H        -6.296693         0.798231        -1.673473
