19
Iteration:  4073
 C         1.071710        -0.242375        -0.744740
 C        -0.212617        -0.055494        -0.094919
 C        -1.380699         0.062476         0.249031
 C        -2.764964         0.284882         0.517616
 O        -2.899293         0.363915         2.042566
 C        -3.510310         1.552956         0.109554
 C        -4.597607         1.205511        -0.708667
 C        -4.508308         1.032949        -2.213154
 O        -5.056166         2.185217        -1.602022
 H         0.999443        -0.604898        -1.764990
 H         1.762826         0.635930        -0.720711
 H         1.600363        -1.037463        -0.228193
 H        -3.252889        -0.669853         0.337823
 H        -2.133857        -0.191281         2.363829
 H        -4.011027         1.977244         1.012744
 H        -2.807680         2.413365        -0.375076
 H        -5.378459         0.600984        -0.290450
 H        -3.510345         1.282172        -2.744814
 H        -5.142243         0.322024        -2.737144
