19
Iteration:  4772
 C         0.966287        -0.391735        -0.682488
 C        -0.350606        -0.204995        -0.185209
 C        -1.455659         0.020994         0.152848
 C        -2.850140         0.210430         0.753658
 O        -2.716116         0.286707         2.170923
 C        -3.534373         1.458197         0.152313
 C        -4.584033         1.144888        -0.932673
 C        -4.272019         1.449827        -2.357305
 O        -5.110610         2.333854        -1.574449
 H         1.454698         0.598457        -0.728164
 H         1.377753        -1.224776        -0.048216
 H         0.756748        -0.670439        -1.718994
 H        -3.529405        -0.638701         0.420978
 H        -1.826152         0.237032         2.513990
 H        -3.921533         2.070214         0.907053
 H        -2.657804         2.100522        -0.158349
 H        -5.303382         0.346490        -0.622823
 H        -3.300522         1.783222        -2.597837
 H        -4.849633         0.819091        -3.044759
