19
Iteration:  1031charge 0 multiplicity 1
 C         1.464295        -0.215981        -0.033642
 C         0.090038         0.174798         0.223712
 C        -1.144430         0.091174         0.222358
 C        -2.614872         0.021455        -0.108603
 O        -3.329166        -0.290423         1.086721
 C        -3.064046         1.414882        -0.683632
 C        -4.535389         1.632905        -0.390329
 C        -5.413757         1.078728        -1.369790
 O        -5.118201         2.546311        -1.272350
 H         2.094769        -0.380590         0.792165
 H         1.400079        -1.075746        -0.662356
 H         1.931573         0.500098        -0.672625
 H        -2.718427        -0.840476        -0.664724
 H        -2.877071         0.105846         1.881609
 H        -2.391255         2.116481        -0.212591
 H        -3.037819         1.545231        -1.772608
 H        -5.096141         1.761646         0.632320
 H        -5.081647         0.613761        -2.317303
 H        -6.447835         0.782018        -1.093097
