19
Iteration:  1648charge 0 multiplicity 1
 C         0.140599         0.002095        -1.621318
 C        -0.875269         0.135685        -0.582668
 C        -1.667290         0.070676         0.403274
 C        -2.984822         0.122146         1.081641
 O        -2.889941         0.269541         2.502128
 C        -3.738754         1.318397         0.521774
 C        -3.812891         0.985446        -0.932891
 C        -3.379713         1.853463        -1.949379
 O        -4.761165         1.664151        -1.864316
 H         0.176033         0.774047        -2.479129
 H         1.099053         0.146382        -1.006263
 H         0.183049        -1.063568        -1.995110
 H        -3.385725        -0.890780         0.711392
 H        -2.147726        -0.286366         2.783058
 H        -4.668406         1.429991         1.021388
 H        -3.179593         2.244514         0.804997
 H        -3.966518        -0.061621        -1.180532
 H        -3.123137         2.927783        -1.802837
 H        -2.742680         1.567189        -2.820114
