19
Iteration:   826charge 0 multiplicity 1
 C         1.559460        -0.104451         0.129935
 C         0.126532        -0.114728         0.357703
 C        -1.049671         0.081815         0.051557
 C        -2.463598         0.031591        -0.235013
 O        -3.168870        -0.259099         1.039047
 C        -3.119873         1.332564        -0.705541
 C        -4.575300         1.560343        -0.453947
 C        -5.713828         1.236432        -1.349154
 O        -5.272611         2.693265        -1.199586
 H         1.887580         0.977741         0.062144
 H         2.118460        -0.664256         0.929561
 H         1.609923        -0.587661        -0.882392
 H        -2.811433        -0.920389        -0.659063
 H        -2.772312        -1.048805         1.382851
 H        -2.609958         2.182303        -0.122976
 H        -2.818973         1.412807        -1.782056
 H        -4.666592         1.372336         0.605099
 H        -5.459478         0.870334        -2.345080
 H        -6.578570         0.782076        -0.906571
