19
Iteration:  3363charge 0 multiplicity 1
 C         1.449497         0.048891         0.006071
 C         0.070112        -0.130205         0.129995
 C        -1.161493        -0.020205         0.033317
 C        -2.646546        -0.032590         0.071353
 O        -3.165746        -0.145937         1.440542
 C        -3.071791         1.332961        -0.487764
 C        -4.626195         1.662662        -0.503746
 C        -5.458895         1.148186        -1.561686
 O        -5.121411         2.521396        -1.538449
 H         1.824587        -0.011997         1.101364
 H         2.011628        -0.690665        -0.672885
 H         1.576354         1.015690        -0.493708
 H        -3.170391        -0.817043        -0.525209
 H        -2.616549        -0.803481         1.850794
 H        -2.575043         2.091910         0.101318
 H        -2.738198         1.363406        -1.516235
 H        -4.961065         1.865821         0.499913
 H        -4.844793         0.634283        -2.305265
 H        -6.566647         0.825685        -1.465809
