19
Iteration:  3493
 C         1.570162        -0.356436         0.633626
 C         0.155757        -0.107641         0.102750
 C        -1.063826         0.204415        -0.064801
 C        -2.445962         0.142633        -0.387990
 O        -3.148419         0.019384         0.971595
 C        -2.981273         1.566596        -0.868892
 C        -4.484154         1.829646        -0.510089
 C        -5.668677         0.920183        -0.789179
 O        -5.467214         2.246143        -1.530274
 H         1.465964        -1.025639         1.445394
 H         2.170750        -0.749587        -0.210867
 H         1.900782         0.546896         1.066203
 H        -2.751861        -0.755018        -0.950057
 H        -3.945422        -0.553258         0.909185
 H        -2.382116         2.421035        -0.339210
 H        -2.661626         1.814837        -1.912589
 H        -4.648135         2.330232         0.423295
 H        -5.692111         0.120868        -1.491491
 H        -6.586115         0.807796        -0.150305
