19
Iteration:  2507charge 0 multiplicity 1
 C         1.451816         0.144454        -0.289389
 C         0.014916        -0.018609        -0.147644
 C        -1.200132        -0.111118         0.167585
 C        -2.695598         0.011591         0.307506
 O        -3.182037        -0.388748         1.607200
 C        -3.173872         1.473753        -0.159538
 C        -4.705387         1.442869        -0.572756
 C        -5.194925         1.277376        -2.011572
 O        -5.081096         2.548472        -1.365458
 H         1.720323        -0.679936        -0.938954
 H         1.736888         1.157198        -0.657720
 H         1.971350        -0.080777         0.679635
 H        -3.092231        -0.733541        -0.345922
 H        -2.617951        -0.163058         2.400512
 H        -2.995650         2.274347         0.570343
 H        -2.521581         1.663098        -1.014720
 H        -5.336995         1.024049         0.193173
 H        -4.387765         0.997625        -2.751378
 H        -6.228247         0.929319        -2.264877
