19
Iteration:  1328charge 0 multiplicity 1
 C         0.904960        -0.172617        -1.035532
 C        -0.317382        -0.204141        -0.294831
 C        -1.294281         0.184146         0.347586
 C        -2.779014         0.189359         0.701515
 O        -3.125670         0.040617         2.147343
 C        -3.459709         1.420430         0.215135
 C        -4.313814         1.143060        -0.907471
 C        -4.200477         1.603535        -2.248510
 O        -5.189684         2.159420        -1.397714
 H         1.203562        -0.869436        -1.828684
 H         0.789930         0.792156        -1.527037
 H         1.747793        -0.100381        -0.347163
 H        -3.181796        -0.705773         0.317255
 H        -2.377815        -0.060094         2.708668
 H        -4.036679         1.721892         1.083285
 H        -2.866636         2.302623         0.008009
 H        -4.894183         0.228510        -0.807615
 H        -3.264788         2.069124        -2.564324
 H        -4.560250         1.043588        -3.081913
