19
Iteration:  2063
 C         1.468975        -0.014242        -0.453674
 C        -0.030010         0.125439        -0.019147
 C        -1.178241        -0.061105         0.316324
 C        -2.666304         0.029600         0.389476
 O        -3.100224        -0.045412         1.803190
 C        -3.198422         1.271347        -0.301910
 C        -4.651474         1.446981        -0.657554
 C        -5.225044         1.067520        -1.900534
 O        -5.062189         2.503734        -1.536888
 H         2.150171         0.043041         0.377101
 H         1.574697        -0.843117        -1.127810
 H         1.737347         0.905012        -0.949922
 H        -3.249303        -0.812284        -0.094612
 H        -4.019493         0.323737         1.811765
 H        -2.911937         2.097359         0.342863
 H        -2.683026         1.382988        -1.321106
 H        -5.352311         1.433065         0.168407
 H        -4.586807         0.606778        -2.661632
 H        -6.280020         0.739536        -2.003694
