19
Iteration:  3471charge 0 multiplicity 1
 C         1.530777        -0.263782         0.569916
 C         0.065015        -0.164048         0.220993
 C        -1.004521         0.064095        -0.230276
 C        -2.480243         0.254326        -0.254221
 O        -3.031069        -0.133451         1.063484
 C        -3.046406         1.550495        -0.834515
 C        -4.480421         1.847123        -0.503185
 C        -5.588021         0.967966        -0.957257
 O        -5.510349         2.296222        -1.517990
 H         1.669294        -0.828889         1.489281
 H         2.168620        -0.709145        -0.223990
 H         1.793127         0.705237         0.929643
 H        -2.997680        -0.569489        -0.787385
 H        -3.981390         0.016681         0.850002
 H        -2.518018         2.570335        -0.544059
 H        -2.732315         1.470064        -1.906299
 H        -4.710954         2.425779         0.362177
 H        -5.512087         0.079632        -1.522801
 H        -6.463595         0.752470        -0.271650
