19
Iteration:  1293charge 0 multiplicity 1
 C         1.062232        -0.219311        -0.919489
 C        -0.262075         0.006683        -0.244284
 C        -1.302349         0.007172         0.361085
 C        -2.767988         0.127695         0.671284
 O        -3.028416        -0.017818         2.141692
 C        -3.410651         1.494279         0.165377
 C        -4.427778         1.253595        -0.868211
 C        -4.405651         1.494279        -2.313535
 O        -5.213610         2.295846        -1.426465
 H         1.196482        -1.228038        -1.405642
 H         1.133432         0.604747        -1.696570
 H         1.889749         0.090856        -0.215317
 H        -3.318136        -0.562182         0.104403
 H        -2.602156        -0.862855         2.178026
 H        -4.003796         1.963537         0.969351
 H        -2.649026         2.138634        -0.202649
 H        -5.023268         0.348645        -0.593373
 H        -3.572569         1.917066        -2.728584
 H        -5.005616         0.766433        -2.788873
