19
Iteration:  1308charge 0 multiplicity 1
 C         1.010020        -0.129979        -0.979108
 C        -0.308071        -0.152255        -0.299197
 C        -1.285501         0.049114         0.369410
 C        -2.720183         0.233163         0.755928
 O        -3.113411        -0.007549         2.079352
 C        -3.419982         1.532353         0.287041
 C        -4.403307         1.123600        -0.909267
 C        -4.368347         1.517544        -2.363775
 O        -5.159599         2.240494        -1.388783
 H         1.079488        -1.098789        -1.420146
 H         1.158529         0.601682        -1.716466
 H         1.802775        -0.145974        -0.287458
 H        -3.106789        -0.673699         0.149943
 H        -2.518263        -0.517325         2.662961
 H        -3.992206         1.838889         1.171794
 H        -2.720533         2.393066         0.085596
 H        -4.972477         0.229988        -0.632776
 H        -3.584201         2.199037        -2.899243
 H        -4.834477         0.956569        -3.206958
