19
Iteration:  1291charge 0 multiplicity 1
 C         1.061350        -0.222593        -0.913168
 C        -0.250692         0.018084        -0.233861
 C        -1.322184         0.006688         0.350855
 C        -2.766018         0.116274         0.661145
 O        -3.016812        -0.015827         2.145228
 C        -3.393954         1.497006         0.162378
 C        -4.453932         1.243071        -0.868643
 C        -4.408047         1.484572        -2.298377
 O        -5.221039         2.316259        -1.432677
 H         1.184492        -1.259754        -1.362380
 H         1.150306         0.620778        -1.698504
 H         1.899235         0.105679        -0.200618
 H        -3.267001        -0.614872         0.043955
 H        -2.616759        -0.896402         2.155735
 H        -4.009004         1.993819         0.948363
 H        -2.552750         2.109854        -0.167956
 H        -5.024217         0.334860        -0.531266
 H        -3.565806         1.945718        -2.764146
 H        -4.990684         0.735234        -2.856489
