19
Iteration:   364charge 0 multiplicity 1
 C         1.636752        -0.061303         0.036597
 C         0.152079        -0.305758        -0.108299
 C        -1.054665        -0.055889        -0.085385
 C        -2.545375         0.105078        -0.088734
 O        -3.312840        -0.202402         1.322861
 C        -3.105735         1.615302        -0.281659
 C        -4.700838         1.653681        -0.389573
 C        -5.356813         1.080374        -1.556260
 O        -5.296279         2.553075        -1.305595
 H         2.220917        -0.486525        -0.793200
 H         1.819754         0.997553         0.215545
 H         2.017167        -0.696814         0.830447
 H        -3.018500        -0.536064        -0.851319
 H        -3.857160        -1.023162         1.124062
 H        -2.772094         2.354703         0.481829
 H        -2.845033         2.086359        -1.175983
 H        -5.115319         1.553054         0.602962
 H        -4.692293         0.702874        -2.291490
 H        -6.316019         0.655469        -1.480017
