19
Iteration:  4717
 C         1.058343        -0.523006        -0.694938
 C        -0.262029        -0.235991        -0.221951
 C        -1.461577        -0.026889         0.138448
 C        -2.903544         0.161678         0.801947
 O        -2.691596         0.592544         2.147090
 C        -3.721214         1.262791         0.172075
 C        -4.411157         1.042293        -1.052333
 C        -4.322199         1.759091        -2.425432
 O        -5.174422         2.242137        -1.428171
 H         1.639188         0.423677        -0.712076
 H         1.682130        -1.180649         0.044558
 H         1.084347        -1.028793        -1.678867
 H        -3.511223        -0.754010         0.643685
 H        -1.974441         0.276085         2.594632
 H        -4.466071         1.360038         0.904675
 H        -2.975443         2.075694         0.231444
 H        -5.054783         0.132344        -0.949863
 H        -3.497496         2.457269        -2.624226
 H        -4.782925         1.211546        -3.290141
