19
Iteration:  4437
 C         0.242289        -0.281809        -1.260743
 C        -0.782099        -0.263138        -0.370446
 C        -1.725243         0.149816         0.291144
 C        -2.903728         0.277792         1.144386
 O        -2.569605         0.541165         2.539617
 C        -3.795199         1.387345         0.404684
 C        -3.891738         0.965034        -1.067983
 C        -3.600977         1.942334        -2.214308
 O        -4.960592         1.554168        -1.879631
 H         0.250581         0.623535        -2.000759
 H         1.243066        -0.322174        -0.850821
 H         0.221193        -1.209725        -1.889671
 H        -3.419804        -0.679369         1.070903
 H        -1.736152         1.106658         2.372190
 H        -4.854704         1.475858         0.757883
 H        -3.427933         2.400447         0.425806
 H        -3.745243        -0.113282        -1.176344
 H        -3.301045         2.987223        -1.934738
 H        -3.253838         1.652958        -3.164639
