19
Iteration:   768
 C         1.492485        -0.207286         0.032407
 C         0.081325         0.066867        -0.097329
 C        -1.098425         0.229060         0.108013
 C        -2.593289         0.046349        -0.048194
 O        -3.289175        -0.343043         1.140844
 C        -3.146128         1.493009        -0.390637
 C        -4.639363         1.530462        -0.379259
 C        -5.420569         1.195893        -1.596074
 O        -5.160513         2.539004        -1.207116
 H         2.242322         0.513824        -0.261720
 H         1.819806        -0.506546         1.041293
 H         1.849863        -1.133171        -0.444469
 H        -2.719635        -0.709301        -0.894025
 H        -2.684842        -0.940134         1.678585
 H        -2.679400         2.223816         0.296720
 H        -2.658946         1.727546        -1.312859
 H        -4.814639         1.359257         0.726608
 H        -4.786354         0.860874        -2.481617
 H        -6.494346         0.819759        -1.577943
