19
Iteration:  2252charge 0 multiplicity 1
 C         1.387774        -0.384185         0.699419
 C         0.078438         0.023591         0.341116
 C        -0.966751         0.216095        -0.351267
 C        -2.416234         0.241023        -0.443520
 O        -3.048894        -0.054499         0.864027
 C        -2.985984         1.561578        -1.037875
 C        -4.406762         1.738667        -0.523714
 C        -5.702340         0.941104        -0.710713
 O        -5.553979         2.213360        -1.331834
 H         1.462939        -1.176785         1.449341
 H         2.002007        -0.472043        -0.179671
 H         1.851272         0.359256         1.360239
 H        -2.762361        -0.435801        -1.254613
 H        -2.385883        -0.711229         1.223379
 H        -2.615704         2.600592        -0.711442
 H        -3.007047         1.459415        -2.107607
 H        -4.398587         2.278264         0.467186
 H        -5.891165         0.024855        -1.332822
 H        -6.469172         1.074683         0.124977
