19
Iteration:  1934charge 0 multiplicity 1
 C         1.058466         0.025238        -0.805585
 C        -0.234864        -0.031176        -0.112497
 C        -1.386051         0.004682         0.212104
 C        -2.821211         0.170739         0.581897
 O        -2.855458         0.095129         2.167543
 C        -3.493376         1.458218         0.115743
 C        -4.597447         1.142514        -0.844858
 C        -4.429526         1.207617        -2.306469
 O        -5.063260         2.324271        -1.488536
 H         1.850970         0.644435        -0.354714
 H         1.610954        -0.883460        -1.083824
 H         0.798957         0.497363        -1.780399
 H        -3.412164        -0.641493         0.361173
 H        -2.897500        -0.875165         2.360245
 H        -3.909825         1.970320         1.021618
 H        -2.710529         2.192880        -0.266130
 H        -5.304378         0.444565        -0.408684
 H        -3.433327         1.389700        -2.660496
 H        -5.035785         0.416703        -2.851406
