19
Iteration:  4104
 C         0.977597        -0.154197        -0.868775
 C        -0.264445        -0.003803        -0.127706
 C        -1.446509         0.134359         0.269059
 C        -2.813084         0.228192         0.773993
 O        -2.823284         0.222336         2.277370
 C        -3.437157         1.502657         0.099646
 C        -4.601415         1.260592        -0.776246
 C        -4.506368         1.034492        -2.264144
 O        -4.983289         2.211940        -1.799199
 H         0.710747        -0.314535        -1.908062
 H         1.648361         0.779130        -0.789876
 H         1.499889        -1.051780        -0.374383
 H        -3.235910        -0.778073         0.548990
 H        -2.205898        -0.455459         2.564374
 H        -3.641770         2.337110         0.784572
 H        -2.632758         1.740545        -0.675090
 H        -5.439506         0.852683        -0.296248
 H        -3.509201         1.228087        -2.793243
 H        -5.183940         0.290563        -2.699303
