19
Iteration:  1761
 C         0.745844        -0.046668        -1.077440
 C        -0.571475        -0.085643        -0.354267
 C        -1.722664        -0.034984         0.093555
 C        -2.886132         0.015778         0.825222
 O        -2.696028         0.512832         2.283360
 C        -3.868014         1.099698         0.334734
 C        -4.382084         0.894392        -1.046673
 C        -3.707811         1.686061        -2.097747
 O        -4.932201         2.179915        -1.487647
 H         1.013191         1.014452        -1.269339
 H         1.560747        -0.597368        -0.525606
 H         0.866579        -0.532261        -2.101158
 H        -3.432963        -0.998348         0.931664
 H        -1.785280         0.779625         2.348399
 H        -4.709644         1.145241         1.003448
 H        -3.268925         1.937661         0.407684
 H        -4.854582        -0.058399        -1.352676
 H        -2.738987         2.035854        -1.898652
 H        -3.884817         1.443154        -3.117135
