19
Iteration:  2004
 C         1.080861         0.235021        -0.725930
 C        -0.183190        -0.125429        -0.096722
 C        -1.275951        -0.147783         0.375865
 C        -2.701179         0.026741         0.589490
 O        -3.128299         0.035812         2.049940
 C        -3.149765         1.314444        -0.150198
 C        -4.550069         1.284560        -0.751006
 C        -4.835573         1.199000        -2.217116
 O        -5.002673         2.359265        -1.457290
 H         1.948167         0.490764        -0.004535
 H         1.631664        -0.637837        -1.280818
 H         0.932507         1.030637        -1.581724
 H        -3.220681        -0.856737         0.185055
 H        -2.948573         1.015561         2.236395
 H        -3.113421         2.203097         0.470413
 H        -2.548440         1.653069        -0.965085
 H        -5.425670         0.933065        -0.142824
 H        -3.940284         1.032084        -2.858784
 H        -5.834149         0.957525        -2.543034
