19
Iteration:  3714
 C         1.522241        -0.019140        -0.091443
 C         0.037554        -0.229698        -0.050531
 C        -1.201093        -0.135162         0.059079
 C        -2.642315         0.174814         0.230703
 O        -3.273694         0.119288         1.597324
 C        -3.099320         1.472662        -0.381776
 C        -4.593160         1.575643        -0.527565
 C        -5.531843         1.005475        -1.548206
 O        -4.908670         2.349007        -1.715112
 H         2.000409        -1.039412        -0.236474
 H         1.667135         0.616524        -0.963255
 H         1.779411         0.486401         0.835198
 H        -3.122448        -0.537999        -0.443254
 H        -2.760205        -0.661042         1.916608
 H        -2.988922         2.384433         0.296551
 H        -2.571939         1.360918        -1.319825
 H        -5.108330         2.021649         0.350972
 H        -5.278814         0.394915        -2.376991
 H        -6.593579         0.941018        -1.202110
