19
Iteration:  2691charge 0 multiplicity 1
 C         1.024511        -0.103102        -0.654606
 C        -0.367372         0.127726        -0.309829
 C        -1.509512         0.006444        -0.087701
 C        -2.822012         0.074953         0.741106
 O        -2.524687         0.030202         2.148331
 C        -3.821001         1.171900         0.311305
 C        -4.424885         1.034967        -1.098724
 C        -4.129633         1.991400        -2.211525
 O        -5.358471         2.128377        -1.411221
 H         1.216331        -0.309202        -1.694586
 H         1.679213         0.633185        -0.199690
 H         1.448514        -1.068639        -0.246146
 H        -3.364445        -0.910868         0.575696
 H        -1.769580        -0.635675         2.233407
 H        -4.808710         1.239556         0.824794
 H        -3.471601         2.177642         0.403984
 H        -4.754960         0.048636        -1.387112
 H        -3.325252         2.694902        -2.050689
 H        -4.118072         1.536343        -3.253428
