19
Iteration:  1094charge 0 multiplicity 1
 C         1.541294        -0.141513        -0.221768
 C         0.062531        -0.176207        -0.102143
 C        -1.129657        -0.026981         0.248111
 C        -2.566546         0.154334         0.230107
 O        -3.316532        -0.235775         1.365181
 C        -3.088458         1.570620        -0.262625
 C        -4.679143         1.556023        -0.417900
 C        -5.297612         1.113679        -1.685808
 O        -5.237037         2.529599        -1.531308
 H         2.139646        -0.691633         0.541509
 H         1.807819        -0.513079        -1.254502
 H         1.823946         0.938391        -0.184603
 H        -2.861922        -0.614017        -0.623479
 H        -2.844693         0.014804         2.213917
 H        -2.741088         2.295611         0.565705
 H        -2.446662         1.773338        -1.185442
 H        -5.226622         1.651957         0.557107
 H        -4.678083         0.824486        -2.526661
 H        -6.232112         0.609890        -1.643174
