19
Iteration:   259
 C         1.590085        -0.297647         0.359981
 C         0.164374         0.033751         0.040669
 C        -1.037320         0.146010        -0.038030
 C        -2.456439         0.104651        -0.264023
 O        -3.073273        -0.516409         0.820186
 C        -3.044565         1.526924        -0.543215
 C        -4.625969         1.701525        -0.310492
 C        -5.765159         1.191852        -1.122400
 O        -5.315336         2.571919        -1.322410
 H         1.781825        -1.297425        -0.066149
 H         2.385632         0.366828        -0.063568
 H         1.736256        -0.309492         1.451848
 H        -2.726871        -0.358218        -1.181107
 H        -3.924206        -0.225929         1.166671
 H        -2.545300         2.220918         0.134452
 H        -2.819811         1.600219        -1.665676
 H        -5.022484         2.050701         0.754236
 H        -5.809262         0.703827        -2.152167
 H        -6.726633         1.065803        -0.569309
