19
Iteration:  1673
 C         0.276320         0.075418        -1.548986
 C        -0.789807        -0.089528        -0.496903
 C        -1.714156         0.041584         0.344288
 C        -2.929754         0.167157         1.062869
 O        -2.862841         0.343098         2.473457
 C        -3.729708         1.300538         0.422356
 C        -3.899606         0.947073        -0.999212
 C        -3.393170         1.858542        -2.010979
 O        -4.835980         1.720982        -1.708312
 H         0.094739         0.999512        -2.146242
 H         1.340469         0.130435        -1.175784
 H         0.185675        -0.797489        -2.263016
 H        -3.305816        -0.806154         0.808054
 H        -2.827152        -0.528396         2.836766
 H        -4.687705         1.346233         0.973336
 H        -3.305136         2.239948         0.636900
 H        -4.094864        -0.105625        -1.245067
 H        -2.994576         2.823407        -1.665779
 H        -3.051422         1.645799        -2.991845
