19
Iteration:  3604
 C         1.546372        -0.253376         0.434331
 C         0.101308        -0.193710         0.101451
 C        -1.046378         0.025091        -0.161345
 C        -2.511518         0.191751        -0.221104
 O        -3.299422        -0.058968         1.061428
 C        -3.019755         1.555884        -0.637634
 C        -4.531373         1.916824        -0.468163
 C        -5.618964         1.003084        -0.876493
 O        -5.294253         2.151425        -1.678034
 H         1.908346        -1.166245         0.919212
 H         2.307878        -0.021397        -0.296593
 H         1.703431         0.518518         1.153103
 H        -2.909439        -0.560503        -0.957714
 H        -3.049970         0.745509         1.578939
 H        -2.356757         2.479468        -0.279789
 H        -2.683399         1.609733        -1.714784
 H        -4.680432         2.492901         0.404636
 H        -5.208472         0.066767        -1.322960
 H        -6.575242         0.990678        -0.437743
