19
Iteration:  1889
 C         1.123431        -0.191510        -0.751827
 C        -0.340441         0.045561        -0.375855
 C        -1.427570         0.260317         0.106897
 C        -2.789820         0.195924         0.688238
 O        -2.713309         0.052815         2.156209
 C        -3.744732         1.403937         0.328950
 C        -4.661264         1.233174        -0.808312
 C        -4.165553         1.240573        -2.169409
 O        -5.169844         2.229333        -1.693600
 H         1.787129         0.400048        -0.106651
 H         1.457610        -1.172353        -0.409941
 H         1.463998        -0.109755        -1.797639
 H        -3.269509        -0.609022         0.234621
 H        -2.140876        -0.758252         2.360159
 H        -4.453870         1.562521         1.176008
 H        -3.150621         2.408401         0.298697
 H        -5.416525         0.518889        -0.526539
 H        -3.315226         1.824984        -2.576964
 H        -4.754519         0.764956        -3.004583
