19
Iteration:  4986charge 0 multiplicity 1
 C         0.489926         0.056521        -1.106027
 C        -0.818101         0.137000        -0.494473
 C        -1.846044         0.027421         0.120552
 C        -3.071811         0.150037         0.860543
 O        -2.608236         0.045939         2.253781
 C        -3.800614         1.515895         0.541054
 C        -4.610520         1.540353        -0.860516
 C        -4.003964         0.730322        -1.947765
 O        -3.868924         2.150141        -1.892693
 H         1.196626         0.645531        -0.623702
 H         0.904679        -0.964283        -1.109233
 H         0.617737         0.428736        -2.106713
 H        -3.898114        -0.559440         0.863385
 H        -2.215422         0.797332         2.685307
 H        -4.499942         1.745245         1.346755
 H        -3.181037         2.300556         0.523135
 H        -5.697874         1.748584        -0.880049
 H        -3.138808         0.113500        -1.749707
 H        -4.474852         0.303412        -2.818804
