19
Iteration:  4148charge 0 multiplicity 1
 C         0.917660        -0.003148        -0.982970
 C        -0.399261        -0.029107        -0.352155
 C        -1.442772        -0.064472         0.366596
 C        -2.820005         0.205874         0.749592
 O        -2.951542         0.394703         2.211969
 C        -3.425231         1.515395         0.262704
 C        -4.633361         1.191363        -0.692725
 C        -4.384634         0.908502        -2.239020
 O        -4.716331         2.223138        -1.751349
 H         0.930381         0.048133        -2.087988
 H         1.536172         0.940389        -0.669149
 H         1.548575        -0.920678        -0.646291
 H        -3.565192        -0.611746         0.511132
 H        -2.448466        -0.327297         2.620576
 H        -3.975138         1.852764         1.119228
 H        -2.861444         2.260095        -0.385093
 H        -5.541731         0.756930        -0.515567
 H        -3.396647         0.613082        -2.775624
 H        -5.271526         0.414113        -2.604715
