19
Iteration:  4829charge 0 multiplicity 1
 C         0.931616        -0.293837        -0.740153
 C        -0.467668        -0.141632        -0.389755
 C        -1.505708         0.044015         0.154430
 C        -2.860151         0.258462         0.694397
 O        -2.822361         0.104060         2.189188
 C        -3.423790         1.609684         0.231698
 C        -4.663062         1.355839        -0.756252
 C        -4.196184         1.132539        -2.105923
 O        -4.955296         2.348144        -1.824362
 H         1.452486         0.648876        -0.331356
 H         1.270040        -1.098256        -0.128062
 H         1.093158        -0.524952        -1.796777
 H        -3.608933        -0.535620         0.689763
 H        -1.833481        -0.210773         2.328260
 H        -3.947611         1.973845         1.020177
 H        -2.572403         2.246786        -0.071132
 H        -5.420575         0.814231        -0.185117
 H        -3.106602         1.113799        -2.340202
 H        -4.660097         0.359301        -2.817498
