19
Iteration:  1281
 C         1.035799        -0.177252        -0.844010
 C        -0.231492         0.041442        -0.158964
 C        -1.357249         0.022493         0.244909
 C        -2.769749         0.099986         0.630252
 O        -2.943069        -0.037110         2.086076
 C        -3.306729         1.488134         0.153805
 C        -4.547857         1.193186        -0.831966
 C        -4.433760         1.428908        -2.281041
 O        -5.248180         2.393210        -1.464493
 H         1.105973        -1.287516        -1.098648
 H         1.207402         0.390190        -1.833740
 H         1.935255        -0.084432        -0.137312
 H        -3.158107        -0.768448         0.201524
 H        -2.801446        -0.921150         2.508323
 H        -3.656383         2.031686         1.064188
 H        -2.464763         2.077472        -0.161564
 H        -5.268648         0.449029        -0.405222
 H        -3.621019         1.949546        -2.659747
 H        -4.885978         0.905471        -3.094568
