19
Iteration:   942charge 0 multiplicity 1
 C         1.347738         0.031735         0.493099
 C        -0.061461        -0.134487         0.168294
 C        -1.150833        -0.164671        -0.463743
 C        -2.622761        -0.030323        -0.247303
 O        -2.850206        -0.288244         1.148250
 C        -3.084927         1.338486        -0.798650
 C        -4.545026         1.749055        -0.388924
 C        -5.665301         1.197785        -1.203533
 O        -5.174308         2.617455        -1.282029
 H         1.468464         0.658929         1.340689
 H         1.817399        -0.910582         0.749446
 H         1.899116         0.447934        -0.328221
 H        -3.192539        -0.783656        -0.701061
 H        -2.081908        -0.019655         1.705873
 H        -2.418735         1.905002        -0.166014
 H        -3.070249         1.725249        -1.779566
 H        -4.656381         1.850480         0.774924
 H        -5.304504         0.570870        -2.069915
 H        -6.670989         1.026741        -0.853631
