19
Iteration:   351
 C         1.606097        -0.123900         0.035970
 C         0.168743        -0.250616        -0.005341
 C        -1.038213        -0.114595        -0.069026
 C        -2.565282         0.171314        -0.008835
 O        -3.300285        -0.134379         1.104286
 C        -3.134148         1.642802        -0.334991
 C        -4.630496         1.558908        -0.314423
 C        -5.447325         1.102965        -1.491476
 O        -5.259032         2.510576        -1.294713
 H         2.061240        -0.432515        -0.922689
 H         1.897804         0.929349         0.085674
 H         2.032154        -0.516943         0.980771
 H        -2.877624        -0.464050        -0.785399
 H        -3.536019        -1.061421         1.077181
 H        -2.858619         2.132661         0.625781
 H        -2.659300         2.092084        -1.197563
 H        -5.151186         1.619951         0.527918
 H        -4.992502         0.772125        -2.437257
 H        -6.478269         0.662601        -1.393152
