19
Iteration:  2860charge 0 multiplicity 1
 C         1.319608        -0.129159         0.993729
 C        -0.051905         0.054493         0.416671
 C        -1.191716        -0.128642         0.122824
 C        -2.570778        -0.318921        -0.551434
 C        -2.814126        -1.785519        -0.840661
 C        -2.834064         0.573490        -1.739639
 O        -2.856642         1.947566        -1.341087
 C        -3.107832         2.806708        -2.330112
 O        -3.583312         2.652073        -3.428448
 H         2.021323         0.550214         0.507352
 H         1.616554        -0.082981         2.031602
 H         1.711064        -1.123786         0.627809
 H        -3.268354         0.154168         0.165677
 H        -3.965306        -1.992035        -0.926746
 H        -2.367510        -2.130735        -1.801447
 H        -2.346975        -2.424704        -0.085807
 H        -2.003271         0.494234        -2.458169
 H        -3.812279         0.516265        -2.151926
 H        -2.767385         3.821439        -2.086313
