19
Iteration:   318
 C         1.334889         0.361449        -0.466186
 C        -0.115256         0.180563        -0.380179
 C        -1.344291         0.155139        -0.220189
 C        -2.757599        -0.133771        -0.035579
 C        -3.282352        -1.632756         0.149249
 C        -3.521085         0.542418        -1.193214
 O        -3.092470         2.008079        -1.136867
 C        -2.688338         2.499951        -2.344543
 O        -2.276754         1.776980        -3.248405
 H         1.998123        -0.163253         0.424755
 H         1.748873        -0.087752        -1.382827
 H         1.609419         1.382004        -0.479509
 H        -3.051750         0.451969         0.897117
 H        -3.302121        -2.020752         1.169892
 H        -4.351736        -1.651136        -0.085513
 H        -2.701497        -2.331942        -0.452343
 H        -3.171154         0.175126        -2.122785
 H        -4.630076         0.574789        -1.141341
 H        -2.941928         3.652204        -2.407910
