19
Iteration:  4166charge 0 multiplicity 1
 C         1.224063        -1.170214         1.101556
 C         0.232687        -0.375903         0.507578
 C        -0.796482         0.092104         0.116847
 C        -2.108384         0.288589        -0.409880
 C        -2.470420        -1.037009        -1.245789
 C        -2.264027         1.588216        -1.208847
 O        -3.700345         2.000488        -1.344990
 C        -4.175993         2.221884        -2.650393
 O        -3.446087         2.104544        -3.605560
 H         0.983596        -1.314334         2.081153
 H         1.076505        -2.116910         0.574950
 H         2.290942        -0.845063         1.313985
 H        -2.690440         0.256265         0.487372
 H        -1.874232        -1.002681        -2.124300
 H        -2.100542        -1.774224        -0.492872
 H        -3.538797        -0.853046        -1.366285
 H        -1.818851         2.528785        -0.686547
 H        -1.850276         1.603490        -2.182808
 H        -5.078100         2.773188        -2.573903
