19
Iteration:  1431charge 0 multiplicity 1
 C         1.070414         0.270772         1.097872
 C        -0.150880         0.211076         0.460845
 C        -1.082515         0.063001        -0.340623
 C        -2.475748        -0.143878        -0.833109
 C        -3.073288        -1.537120        -0.487012
 C        -2.664190         0.135238        -2.359848
 O        -2.296972         1.546204        -2.753869
 C        -2.994263         2.643732        -2.237133
 O        -3.946280         2.568636        -1.462065
 H         0.821603        -0.147084         2.051400
 H         1.789126        -0.457365         0.737261
 H         1.622572         1.291011         1.218092
 H        -3.079636         0.632770        -0.300517
 H        -2.447766        -2.367373        -0.208880
 H        -3.764261        -1.508207         0.376756
 H        -3.662854        -1.789523        -1.364686
 H        -1.998808        -0.484772        -2.998367
 H        -3.737250        -0.045750        -2.669787
 H        -2.421370         3.557195        -2.626774
