19
Iteration:  1322
 C         1.002435         0.702514         0.683219
 C        -0.371470         0.356647         0.234375
 C        -1.400279        -0.042325        -0.176891
 C        -2.711250        -0.306543        -0.759672
 C        -3.165024        -1.828263        -0.652165
 C        -2.826339         0.086485        -2.222180
 O        -2.119639         1.447020        -2.630087
 C        -2.596982         2.596427        -2.015124
 O        -3.597791         2.702623        -1.371858
 H         1.799499        -0.011586         0.543903
 H         1.389260         1.621590         0.274923
 H         0.977126         0.726465         1.867877
 H        -3.442574         0.270498        -0.109795
 H        -4.293236        -1.930357        -0.748010
 H        -2.478773        -2.418623        -1.367104
 H        -2.842438        -2.133205         0.358862
 H        -2.294211        -0.653367        -2.853710
 H        -3.895108         0.157271        -2.521634
 H        -1.822061         3.427785        -2.131962
