19
Iteration:  2471charge 0 multiplicity 1
 C         1.238245         0.073847         0.636224
 C        -0.082255         0.193778         0.043784
 C        -1.316143         0.198104        -0.138145
 C        -2.646949        -0.238852        -0.370980
 C        -2.601554        -1.733788        -0.801160
 C        -3.435231         0.467672        -1.503291
 O        -3.551998         1.893018        -1.342075
 C        -2.894650         2.672733        -2.145324
 O        -2.402683         2.298076        -3.178554
 H         1.925424         0.067275        -0.259108
 H         1.577262         0.903832         1.221277
 H         1.108050        -0.841282         1.140115
 H        -3.200406        -0.253789         0.578881
 H        -2.910591        -2.490090        -0.012092
 H        -3.378115        -1.832143        -1.601148
 H        -1.609773        -2.180936        -0.948501
 H        -2.977419         0.331983        -2.532839
 H        -4.462746         0.134798        -1.647355
 H        -3.144975         3.741980        -1.894327
