19
Iteration:  4411
 C         1.423579        -0.136388         1.088792
 C         0.039952        -0.556663         0.620431
 C        -1.054971        -0.511876         0.011098
 C        -2.399097        -0.121446        -0.525452
 C        -3.043818        -1.322600        -1.300022
 C        -2.089574         1.180559        -1.341551
 O        -3.440278         1.809178        -1.310014
 C        -3.853249         2.447231        -2.463055
 O        -3.200331         2.628938        -3.475994
 H         2.026358        -0.102855         0.150069
 H         1.512732         0.907931         1.294519
 H         1.957322        -0.748032         1.885218
 H        -3.073398         0.205789         0.254742
 H        -4.053094        -0.896132        -1.481697
 H        -2.373858        -1.400601        -2.141110
 H        -3.142304        -2.124756        -0.571503
 H        -1.438327         1.852970        -0.828385
 H        -1.834336         0.936224        -2.393079
 H        -4.838830         2.831203        -2.310043
