19
Iteration:  4957charge 0 multiplicity 1
 C         1.154318         0.210821         1.155093
 C         0.076598        -0.148283         0.274976
 C        -1.054269        -0.356793        -0.103939
 C        -2.361789        -0.078524        -0.772530
 C        -3.471994        -1.211270        -0.732375
 C        -2.035407         0.585051        -2.177071
 O        -3.409578         1.041146        -2.640858
 C        -3.578048         2.398265        -2.282165
 O        -2.898156         3.101910        -1.604892
 H         2.135141        -0.250853         0.749289
 H         1.377591         1.216375         0.967601
 H         1.200241        -0.087111         2.228369
 H        -2.757231         0.650242         0.018788
 H        -4.465233        -0.661425        -0.620461
 H        -3.630635        -1.769112        -1.720559
 H        -3.377757        -1.962097         0.079173
 H        -1.256281         1.492650        -2.132767
 H        -1.677510        -0.179468        -2.916936
 H        -4.593578         2.686035        -2.691579
