19
Iteration:  4380
 C         1.382650        -0.235634         1.019631
 C        -0.015530        -0.483078         0.611942
 C        -1.164387        -0.434293         0.187756
 C        -2.390329        -0.174275        -0.527399
 C        -2.834385        -1.410522        -1.300251
 C        -2.090066         1.181112        -1.258727
 O        -3.371029         1.953538        -1.267935
 C        -3.810398         2.561651        -2.494661
 O        -3.331481         2.552022        -3.601083
 H         1.851608        -0.034470        -0.008695
 H         1.417735         0.575702         1.756239
 H         1.984300        -1.083156         1.278542
 H        -3.210423         0.083899         0.134742
 H        -3.923342        -1.475564        -1.135390
 H        -2.673846        -1.325741        -2.458402
 H        -2.494213        -2.416984        -0.999846
 H        -1.384481         1.723918        -0.640835
 H        -1.745924         0.949401        -2.238818
 H        -4.748772         3.082640        -2.275319
