19
Iteration:  3642charge 0 multiplicity 1
 C         1.475402        -0.666049         0.890690
 C         0.091963        -0.302915         0.428793
 C        -1.084650        -0.105262         0.249573
 C        -2.421242        -0.024408        -0.316109
 C        -2.765643        -1.407514        -1.001756
 C        -2.274672         1.099142        -1.469122
 O        -3.325572         1.997009        -1.367762
 C        -3.822844         2.644623        -2.457687
 O        -3.468613         2.437163        -3.607456
 H         1.234495        -1.032449         1.905083
 H         1.820725        -1.405952         0.266726
 H         1.983357         0.283981         0.897223
 H        -3.210479         0.231646         0.362272
 H        -3.576640        -1.349472        -1.771046
 H        -1.789107        -1.657975        -1.362770
 H        -3.083374        -2.134585        -0.253194
 H        -1.299050         1.632171        -1.299164
 H        -2.352899         0.632829        -2.556985
 H        -4.638178         3.240268        -2.116069
