19
Iteration:  1543charge 0 multiplicity 1
 C         1.301981        -0.012462         1.001937
 C        -0.080582         0.096640         0.540035
 C        -1.118645         0.066400        -0.103556
 C        -2.458864        -0.129129        -0.747895
 C        -3.075881        -1.529122        -0.447130
 C        -2.514081         0.359761        -2.220587
 O        -2.116928         1.811864        -2.235314
 C        -3.168487         2.642877        -2.343684
 O        -4.367345         2.406559        -2.230412
 H         1.837705         0.912134         1.347052
 H         1.432035        -0.792859         1.766808
 H         1.792894        -0.354763         0.097141
 H        -3.272795         0.515784        -0.293776
 H        -4.082731        -1.229697        -0.203413
 H        -2.957367        -2.127431        -1.355918
 H        -2.654619        -1.969441         0.498876
 H        -1.769611        -0.219740        -2.795965
 H        -3.491409         0.352206        -2.683710
 H        -2.936372         3.712342        -2.703348
