19
Iteration:  2764
 C         1.162402         0.325454         0.992654
 C        -0.016406         0.060356         0.215847
 C        -1.140548        -0.309546        -0.247352
 C        -2.527789        -0.503652        -0.462216
 C        -3.003790        -1.850521        -0.976227
 C        -3.231446         0.600421        -1.407719
 O        -2.721678         1.950342        -1.192461
 C        -2.745187         2.710416        -2.365718
 O        -3.415935         2.635974        -3.368490
 H         0.934460         1.266321         1.620593
 H         1.538277        -0.444612         1.706389
 H         2.125898         0.563408         0.330605
 H        -3.091684        -0.401285         0.476290
 H        -4.003841        -1.787591        -1.463285
 H        -2.386977        -2.236574        -1.776628
 H        -3.036079        -2.782406        -0.467952
 H        -2.986350         0.378104        -2.505956
 H        -4.246053         0.586959        -1.117945
 H        -1.826687         3.322186        -2.452729
