19
Iteration:  1770charge 0 multiplicity 1
 C         1.372847        -0.152722         0.888464
 C         0.036084        -0.031183         0.366891
 C        -1.063495         0.035747        -0.111150
 C        -2.420250        -0.102695        -0.471956
 C        -2.809555        -1.630842        -0.482853
 C        -2.954681         0.504156        -1.629857
 O        -2.745915         1.940697        -1.456595
 C        -3.186833         2.717149        -2.458821
 O        -3.846836         2.424907        -3.411414
 H         1.740773        -1.152296         1.005754
 H         2.216271         0.183863         0.309745
 H         1.428844         0.527203         1.844129
 H        -2.941194         0.513664         0.255978
 H        -3.285715        -2.024064         0.445950
 H        -3.481458        -1.817854        -1.343793
 H        -1.850617        -2.236401        -0.690098
 H        -2.355209         0.295399        -2.596783
 H        -4.015189         0.231653        -1.834546
 H        -2.893542         3.792341        -2.360821
