19
Iteration:  2435
 C         1.288582         0.181974         0.431601
 C        -0.160093         0.164395         0.272256
 C        -1.349184         0.202248        -0.020606
 C        -2.792394        -0.266875        -0.368077
 C        -2.608918        -1.721524        -0.831640
 C        -3.431040         0.489058        -1.553014
 O        -3.559710         1.849794        -1.316769
 C        -2.883191         2.664620        -2.194715
 O        -2.271961         2.259011        -3.139322
 H         1.845168         0.460088        -0.453514
 H         1.765884         0.553300         1.376537
 H         1.632796        -0.836367         0.416128
 H        -3.466958        -0.156017         0.515799
 H        -2.342789        -2.359412         0.000002
 H        -3.619887        -2.033094        -1.091948
 H        -2.165214        -1.778755        -1.807889
 H        -2.748104         0.272921        -2.355112
 H        -4.446199         0.049946        -1.733202
 H        -3.124757         3.757138        -2.021474
