19
Iteration:  3047
 C         1.359409        -0.193381         1.110573
 C         0.108614        -0.310339         0.373639
 C        -1.044752        -0.246680        -0.083816
 C        -2.423668        -0.232732        -0.493492
 C        -2.794528        -1.686222        -0.887029
 C        -2.913203         0.722682        -1.659707
 O        -2.967409         2.073462        -1.285098
 C        -3.444367         2.863455        -2.344844
 O        -3.462818         2.589006        -3.535922
 H         1.809435        -1.128489         1.562053
 H         2.017984         0.403648         0.433363
 H         0.854747         0.451199         1.914638
 H        -3.103184         0.214734         0.283573
 H        -3.869263        -1.943903        -0.974088
 H        -2.242519        -2.097264        -1.732644
 H        -2.351887        -2.144724         0.034091
 H        -2.078219         0.722923        -2.415777
 H        -3.867356         0.343120        -1.929740
 H        -3.677853         3.818462        -1.868276
