19
Iteration:   144
 C         1.006263         0.608936        -0.958409
 C        -0.186078         0.078748        -0.293490
 C        -1.409337         0.127712        -0.291278
 C        -2.787156        -0.003637         0.030341
 C        -3.249371        -1.394911         0.211896
 C        -3.663205         0.429547        -1.119530
 O        -3.378040         1.826232        -1.378463
 C        -2.447902         2.305826        -2.134594
 O        -1.641900         1.739624        -2.862279
 H         0.657128         0.724946        -2.175792
 H         1.231365         1.612135        -0.669342
 H         1.959328         0.190958        -0.948353
 H        -2.994115         0.555284         0.994238
 H        -3.193030        -1.665131         1.256639
 H        -4.260712        -1.575842        -0.135257
 H        -2.672474        -2.125615        -0.368177
 H        -3.408027        -0.111996        -1.993319
 H        -4.769818         0.348404        -0.972677
 H        -2.565206         3.371917        -2.094941
