19
Iteration:  3129
 C         1.180308        -0.038297         0.833424
 C        -0.225189         0.099966         0.425250
 C        -1.344270        -0.046429         0.043004
 C        -2.611465        -0.386460        -0.541287
 C        -2.621203        -1.922330        -0.733450
 C        -2.899440         0.481875        -1.842542
 O        -2.563721         1.838525        -1.470725
 C        -3.068044         2.844871        -2.182692
 O        -3.584252         2.835082        -3.274792
 H         1.183639        -0.662740         1.723899
 H         1.760232        -0.577717         0.082159
 H         1.867854         0.750473         1.050852
 H        -3.386879        -0.090555         0.154874
 H        -3.648643        -2.171660        -1.066838
 H        -1.795575        -2.263800        -1.414427
 H        -2.476768        -2.331722         0.266034
 H        -2.309888         0.274103        -2.741345
 H        -3.947951         0.432324        -2.260583
 H        -3.029407         3.717005        -1.523666
