19
Iteration:  3643
 C         1.481620        -0.665223         0.882495
 C         0.083617        -0.302521         0.438747
 C        -1.087494        -0.100740         0.242819
 C        -2.420553        -0.018029        -0.312359
 C        -2.768921        -1.408050        -1.009458
 C        -2.280043         1.109397        -1.466206
 O        -3.327379         1.994228        -1.360769
 C        -3.824452         2.631575        -2.464636
 O        -3.465285         2.438921        -3.609874
 H         1.231860        -1.061136         1.921099
 H         1.846956        -1.437331         0.291510
 H         2.033766         0.249690         0.882221
 H        -3.202060         0.243179         0.390510
 H        -3.552923        -1.338590        -1.784986
 H        -1.787639        -1.677996        -1.320519
 H        -3.070821        -2.132773        -0.284339
 H        -1.281181         1.649202        -1.321407
 H        -2.343741         0.611805        -2.515458
 H        -4.636247         3.245857        -2.104487
