19
Iteration:  1900
 C         1.352763         0.291340         0.495142
 C        -0.130597         0.095173         0.172063
 C        -1.308881        -0.151713        -0.001610
 C        -2.732624        -0.303628        -0.293915
 C        -2.951864        -1.853422        -0.523761
 C        -3.025539         0.511874        -1.545058
 O        -2.910087         1.956407        -1.240433
 C        -3.029203         2.722787        -2.323893
 O        -3.031852         2.399258        -3.491748
 H         1.450666         0.957622         1.333015
 H         1.973366        -0.570482         0.474473
 H         2.018989         0.889123        -0.259422
 H        -3.347659        -0.078356         0.636674
 H        -3.611830        -2.146534        -1.362659
 H        -1.988597        -2.351527        -0.645233
 H        -3.456394        -2.384991         0.310614
 H        -2.139446         0.251552        -2.203980
 H        -3.954955         0.439636        -2.102696
 H        -3.178145         3.789344        -1.850548
