19
Iteration:  1252charge 0 multiplicity 1
 C         0.882693         0.866279         0.420825
 C        -0.444484         0.361916         0.206965
 C        -1.499357        -0.165478        -0.183607
 C        -2.831307        -0.400117        -0.766792
 C        -3.130995        -1.973378        -0.623706
 C        -2.871093         0.248068        -2.100483
 O        -1.960864         1.410799        -2.424737
 C        -2.413636         2.626095        -1.955467
 O        -3.527784         2.688039        -1.458727
 H         1.561053         1.170606        -0.460264
 H         0.845546         1.912037         0.920860
 H         1.464763         0.173326         1.044056
 H        -3.554748         0.089073        -0.119388
 H        -2.809270        -2.590145        -1.473899
 H        -2.817298        -2.165415         0.381203
 H        -4.253193        -2.115933        -0.532633
 H        -2.531004        -0.483337        -2.871481
 H        -3.935922         0.500506        -2.366538
 H        -1.652834         3.390737        -1.971205
