19
Iteration:  1267charge 0 multiplicity 1
 C         0.974858         0.899243         0.512686
 C        -0.357034         0.311304         0.115427
 C        -1.537948        -0.010999        -0.105364
 C        -2.810345        -0.397070        -0.699963
 C        -3.181311        -1.976467        -0.652897
 C        -2.859206         0.243236        -2.262555
 O        -1.998727         1.367955        -2.406255
 C        -2.467354         2.486860        -1.911904
 O        -3.540432         2.772680        -1.453322
 H         1.516834         0.761093        -0.365753
 H         0.903195         1.923561         0.790687
 H         1.391254         0.284880         1.363044
 H        -3.650951         0.068977        -0.117845
 H        -3.046695        -2.497252        -1.665796
 H        -2.483215        -2.536957         0.019345
 H        -4.167809        -2.206283        -0.253715
 H        -2.483389        -0.520901        -2.949162
 H        -3.851657         0.639495        -2.517831
 H        -1.840891         3.388115        -2.103945
