19
Iteration:  1980charge 0 multiplicity 1
 C         1.219180         0.672712         0.208985
 C        -0.144762         0.168018         0.133444
 C        -1.340487        -0.123418         0.020134
 C        -2.743171        -0.385956        -0.390231
 C        -3.071544        -1.897855        -0.406093
 C        -3.172296         0.325486        -1.607234
 O        -3.199321         1.721714        -1.252443
 C        -2.724040         2.619361        -2.140993
 O        -2.540298         2.565679        -3.345626
 H         1.356582         1.724731         0.069451
 H         1.490691         0.474784         1.223403
 H         1.831506         0.042986        -0.469762
 H        -3.389157         0.074678         0.394028
 H        -3.489111        -2.261544         0.503151
 H        -3.836182        -2.047132        -1.194442
 H        -2.229342        -2.474524        -0.748526
 H        -2.627695         0.122540        -2.526961
 H        -4.239669        -0.012406        -1.766087
 H        -2.511702         3.449271        -1.364835
