19
Iteration:   658
 C         1.676785        -0.127227         0.613015
 C         0.239647        -0.267060         0.153747
 C        -0.994336        -0.114540         0.007158
 C        -2.462511         0.007715        -0.234215
 C        -3.159523        -1.388581        -0.185506
 C        -3.009585         0.612587        -1.562100
 O        -2.480223         1.890320        -1.784500
 C        -3.152293         2.686813        -2.645658
 O        -4.183855         2.358606        -3.209188
 H         1.940738        -1.037494         0.905365
 H         2.482397         0.427284         0.172026
 H         1.619757         0.434427         1.652885
 H        -2.866254         0.716479         0.575399
 H        -3.216964        -1.795572         0.840077
 H        -4.182176        -1.488695        -0.628865
 H        -2.593979        -2.161300        -0.781432
 H        -2.932223        -0.057714        -2.463911
 H        -4.061294         0.667195        -1.255165
 H        -2.449879         3.625694        -2.530763
