19
Iteration:  3819charge 0 multiplicity 1
 C         1.502180        -1.029872         0.753552
 C         0.252245        -0.339164         0.288470
 C        -0.906485         0.012555         0.069374
 C        -2.353293         0.275243        -0.181508
 C        -2.861382        -0.967586        -1.069544
 C        -2.505783         1.594010        -0.960311
 O        -3.842726         1.796960        -1.460772
 C        -3.898586         2.195420        -2.740737
 O        -2.945405         2.169947        -3.467864
 H         2.477194        -0.351150         0.809086
 H         1.333531        -1.375242         1.724102
 H         1.883587        -1.871635         0.239034
 H        -2.924377         0.341485         0.707555
 H        -3.819314        -1.208426        -0.621043
 H        -3.114381        -0.707650        -2.131125
 H        -2.105495        -1.682660        -0.729372
 H        -2.435601         2.462779        -0.105884
 H        -1.742262         1.764115        -1.714635
 H        -4.924546         2.492229        -2.877873
