19
Iteration:   245
 C         1.111938         0.481694        -0.814394
 C        -0.185594         0.288440        -0.374270
 C        -1.356545         0.137293        -0.042438
 C        -2.811116        -0.133112         0.039049
 C        -3.283847        -1.568504         0.257614
 C        -3.584088         0.418313        -1.225356
 O        -3.356419         1.891148        -1.280411
 C        -2.400422         2.407866        -2.186563
 O        -1.863981         1.848152        -3.124385
 H         1.536297        -0.448875        -1.323814
 H         1.055325         0.917168        -1.854598
 H         1.754728         1.116626        -0.176711
 H        -3.238157         0.520880         0.843088
 H        -2.650450        -2.208796         0.934029
 H        -4.324410        -1.588880         0.682965
 H        -3.325110        -2.123684        -0.710504
 H        -3.302345        -0.017933        -2.241576
 H        -4.684289         0.362964        -1.153536
 H        -2.361475         3.475129        -1.989176
