19
Iteration:  4521charge 0 multiplicity 1
 C         1.576176        -0.606731         0.998407
 C         0.192267        -0.479069         0.500666
 C        -0.949668        -0.124184         0.225003
 C        -2.358363        -0.055600        -0.356302
 C        -2.780800        -1.320767        -0.988173
 C        -2.407027         1.181606        -1.268830
 O        -3.850011         1.581972        -1.713158
 C        -3.981897         2.436994        -2.777750
 O        -3.015214         3.010862        -3.281504
 H         1.726326        -1.722307         1.129034
 H         2.311855        -0.121502         0.394136
 H         1.736240        -0.239859         2.018905
 H        -3.098049         0.102826         0.472923
 H        -3.743099        -1.249814        -1.486836
 H        -2.052416        -1.708179        -1.770647
 H        -2.940017        -2.153326        -0.316243
 H        -2.021078         2.090994        -0.764751
 H        -1.818303         1.037708        -2.199473
 H        -4.985698         2.332612        -3.199287
