19
Iteration:   759charge 0 multiplicity 1
 C         1.519254        -0.340990         0.600104
 C         0.097512         0.027677         0.384716
 C        -1.047262         0.118006        -0.098483
 C        -2.551503         0.011450        -0.320065
 C        -3.077998        -1.362602        -0.095593
 C        -2.683454         0.385361        -1.807892
 O        -2.300473         1.793223        -2.060843
 C        -3.263399         2.663415        -2.357384
 O        -4.317613         2.467583        -2.994387
 H         1.717141        -0.080685         1.572267
 H         1.841862        -1.406499         0.525195
 H         2.297392         0.337066         0.044561
 H        -3.107198         0.825602         0.264750
 H        -2.944980        -1.731392         0.934587
 H        -4.171603        -1.443562        -0.360048
 H        -2.582027        -2.071294        -0.813634
 H        -1.876836        -0.233437        -2.314236
 H        -3.649631         0.205274        -2.369251
 H        -2.785797         3.637114        -1.915885
