19
Iteration:  1679
 C         1.478564        -0.052404         0.871306
 C         0.052615        -0.222149         0.421090
 C        -1.098255        -0.009012         0.074589
 C        -2.496571        -0.086488        -0.443502
 C        -3.102231        -1.509545        -0.511007
 C        -2.536493         0.554767        -1.849650
 O        -2.404027         1.963705        -1.736325
 C        -3.338173         2.735057        -2.379676
 O        -4.202214         2.314509        -3.164807
 H         2.109437        -0.355487         0.048199
 H         1.815709         0.988303         1.139120
 H         1.702206        -0.738697         1.704359
 H        -3.001245         0.570941         0.289112
 H        -3.064396        -1.806253        -1.574311
 H        -2.500394        -2.279185        -0.006947
 H        -4.049599        -1.804593        -0.080888
 H        -1.663654         0.215713        -2.411707
 H        -3.447800         0.297188        -2.419942
 H        -2.948465         3.771292        -2.107981
