19
Iteration:  3240charge 0 multiplicity 1
 C         1.092154         0.613135         0.881789
 C        -0.161741         0.036254         0.310556
 C        -1.246068        -0.489899        -0.050474
 C        -2.650689        -0.417205        -0.554118
 C        -3.222442        -1.733612        -1.010962
 C        -2.701150         0.545402        -1.776057
 O        -2.203605         1.751276        -1.445381
 C        -2.948554         2.694607        -2.049615
 O        -3.631461         2.570436        -3.054393
 H         0.888810         1.478960         1.531992
 H         1.654204        -0.290974         1.348517
 H         1.679856         0.884287         0.012450
 H        -3.198536         0.022682         0.270103
 H        -4.169790        -1.644539        -1.632155
 H        -2.565885        -2.331504        -1.674457
 H        -3.598238        -2.408222        -0.187903
 H        -2.091486         0.136446        -2.649224
 H        -3.770373         0.597617        -2.004774
 H        -2.609493         3.648983        -1.658288
