19
Iteration:  3343
 C         1.220529         0.286059         1.057932
 C        -0.102009         0.004127         0.493539
 C        -1.244227        -0.085689        -0.028760
 C        -2.594001        -0.454030        -0.544565
 C        -2.916999        -1.907510        -0.877230
 C        -2.936557         0.367531        -1.898700
 O        -2.376328         1.667948        -1.702824
 C        -2.947042         2.836860        -2.174962
 O        -3.767554         2.944346        -3.056641
 H         1.646152         1.168182         0.615644
 H         1.140062         0.209499         2.226195
 H         1.774331        -0.668861         0.865965
 H        -3.231360         0.078149         0.176996
 H        -3.923982        -1.863246        -1.344687
 H        -2.186521        -2.344570        -1.599609
 H        -3.003883        -2.643847        -0.086643
 H        -2.467733        -0.054088        -2.826385
 H        -4.057170         0.338518        -2.181930
 H        -2.360388         3.660576        -1.657585
