19
Iteration:  2640
 C         1.073385         0.541236         0.164897
 C        -0.338817         0.075172         0.380179
 C        -1.481825        -0.201626         0.304077
 C        -2.789285        -0.486616        -0.419696
 C        -3.004086        -1.941684        -0.808300
 C        -2.685742         0.365545        -1.665967
 O        -2.786317         1.742414        -1.185714
 C        -2.844104         2.809146        -2.076232
 O        -2.923689         2.747329        -3.290742
 H         1.637240        -0.026896         0.916110
 H         1.527644         0.213325        -0.749522
 H         1.238156         1.706802         0.085339
 H        -3.701142        -0.176321         0.159518
 H        -3.768951        -2.253052        -1.565329
 H        -2.142056        -2.532085        -1.232725
 H        -3.309437        -2.668051         0.044652
 H        -1.824386         0.254712        -2.302667
 H        -3.591576         0.181117        -2.342587
 H        -3.067187         3.769721        -1.550015
