19
Iteration:  2442
 C         1.296004         0.112722         0.467456
 C        -0.130100         0.168112         0.214269
 C        -1.359270         0.275578        -0.002037
 C        -2.744966        -0.241109        -0.367337
 C        -2.651867        -1.716752        -0.847280
 C        -3.440457         0.447634        -1.566183
 O        -3.571311         1.875284        -1.292786
 C        -2.893901         2.600033        -2.159783
 O        -2.283844         2.273818        -3.167670
 H         1.762063         0.631408        -0.384714
 H         1.766801         0.777289         1.276101
 H         1.649447        -0.979963         0.715342
 H        -3.370932        -0.197084         0.535442
 H        -2.423178        -2.414203        -0.057941
 H        -3.651982        -1.992986        -1.236746
 H        -1.903234        -1.806939        -1.689275
 H        -2.735021         0.376676        -2.407629
 H        -4.429264         0.034398        -1.787008
 H        -3.101181         3.667960        -2.088280
