19
Iteration:  4198charge 0 multiplicity 1
 C         1.325298        -1.155946         1.239495
 C         0.153486        -0.521597         0.625701
 C        -0.715692         0.072208         0.047252
 C        -2.068077         0.336219        -0.509381
 C        -2.622726        -0.844348        -1.295760
 C        -2.280049         1.654645        -1.234159
 O        -3.673719         1.929630        -1.305306
 C        -4.125651         2.026534        -2.631238
 O        -3.478444         2.252144        -3.656804
 H         1.397721        -1.033628         2.316742
 H         1.266932        -2.299444         1.109596
 H         2.324067        -0.975034         0.693951
 H        -2.649946         0.470587         0.414348
 H        -2.888336        -0.793788        -2.315941
 H        -1.844961        -1.705572        -1.145676
 H        -3.590721        -1.198507        -0.882941
 H        -1.703246         2.432906        -0.554845
 H        -1.918304         1.574107        -2.246199
 H        -5.202032         2.041753        -2.542274
