19
Iteration:  3679
 C         1.513703        -0.791566         0.767024
 C         0.125220        -0.363821         0.746245
 C        -0.993532        -0.146408         0.280738
 C        -2.248055         0.036151        -0.411139
 C        -2.848964        -1.248642        -1.060115
 C        -2.286047         1.357253        -1.435105
 O        -3.563631         1.964524        -1.398035
 C        -3.998766         2.514750        -2.552384
 O        -3.316208         2.359630        -3.538559
 H         1.970266        -0.811441         1.841027
 H         1.724065        -1.850912         0.387040
 H         2.339336        -0.196377         0.374873
 H        -2.866295         0.335397         0.493656
 H        -3.349761        -1.140554        -1.985858
 H        -2.056477        -1.964483        -1.410201
 H        -3.517645        -1.730813        -0.337258
 H        -1.529642         2.160274        -1.176544
 H        -1.998154         0.970911        -2.366412
 H        -5.044685         2.983694        -2.490984
