19
Iteration:  2112
 C         1.113861         0.825082        -0.038080
 C        -0.285100         0.432160        -0.083055
 C        -1.418467         0.112979        -0.288671
 C        -2.794856        -0.319672        -0.412533
 C        -2.857559        -1.809097        -0.805278
 C        -3.729313         0.445832        -1.450341
 O        -3.561169         1.855494        -1.199869
 C        -2.526817         2.411464        -1.957648
 O        -1.751733         1.826763        -2.678784
 H         1.761088         0.209525        -0.685061
 H         1.246354         1.904962        -0.159779
 H         1.415881         0.889247         1.063209
 H        -3.277985        -0.192205         0.608168
 H        -2.122580        -2.028730        -1.579379
 H        -2.614825        -2.355857         0.093061
 H        -3.879981        -2.127074        -0.989463
 H        -3.472946         0.141388        -2.467351
 H        -4.801833         0.221177        -1.224410
 H        -2.460860         3.452146        -1.787375
