19
Iteration:   568
 C         1.429785        -0.084409         0.259483
 C         0.057251        -0.081725         0.006768
 C        -1.138452         0.157706         0.094979
 C        -2.519246        -0.087877        -0.106628
 C        -3.141502        -1.504770        -0.025077
 C        -2.886446         0.399176        -1.464235
 O        -2.583249         1.834813        -1.526790
 C        -3.062015         2.653953        -2.488102
 O        -3.740814         2.405121        -3.476791
 H         1.862517        -0.193999        -0.667581
 H         1.765382         0.918571         0.540589
 H         1.815260        -0.885946         1.022981
 H        -3.154927         0.600936         0.565621
 H        -2.631167        -2.056514         0.785377
 H        -4.213076        -1.385416         0.081279
 H        -3.190242        -1.944304        -1.040819
 H        -2.276443        -0.129871        -2.206607
 H        -3.937656         0.234313        -1.770444
 H        -2.944465         3.810658        -2.225719
