19
Iteration:  1856
 C         1.454366         0.114274         0.670065
 C         0.030587         0.010299         0.358285
 C        -1.154110        -0.039121         0.084844
 C        -2.599737        -0.275245        -0.356846
 C        -2.921344        -1.687241        -0.664991
 C        -3.098792         0.578505        -1.579417
 O        -2.943782         1.952000        -1.263989
 C        -3.015095         2.721049        -2.422185
 O        -3.386496         2.302335        -3.516832
 H         1.658218         0.033218         1.719443
 H         1.936630        -0.539366        -0.009135
 H         1.832044         1.129283         0.269658
 H        -3.205590         0.181151         0.474485
 H        -2.390750        -1.927077        -1.588845
 H        -2.721957        -2.368928         0.161879
 H        -3.948215        -1.859429        -0.982003
 H        -2.583951         0.366129        -2.558643
 H        -4.155393         0.297423        -1.670334
 H        -2.708842         3.779355        -2.034314
