19
Iteration:  4207
 C         1.333873        -1.126951         1.219408
 C         0.165633        -0.557382         0.672919
 C        -0.721716         0.017721         0.021015
 C        -2.032770         0.349129        -0.452900
 C        -2.662397        -0.842273        -1.317536
 C        -2.189906         1.672240        -1.200101
 O        -3.672792         1.891348        -1.361599
 C        -4.140425         2.016088        -2.644248
 O        -3.513012         2.267222        -3.625822
 H         1.379237        -0.788103         2.327810
 H         1.125478        -2.282644         1.255170
 H         2.252551        -0.849454         0.655081
 H        -2.747504         0.506543         0.417363
 H        -2.923243        -0.519806        -2.340261
 H        -2.158867        -1.848436        -1.496687
 H        -3.518319        -1.167868        -0.741983
 H        -1.743460         2.622646        -0.660767
 H        -1.696838         1.675155        -2.199686
 H        -5.265115         2.000090        -2.642521
