19
Iteration:   681charge 0 multiplicity 1
 C         1.472543        -0.212660         0.651614
 C         0.189400        -0.208823         0.089085
 C        -0.997401        -0.117041         0.016306
 C        -2.442845         0.002892        -0.136891
 C        -2.996389        -1.407398        -0.175772
 C        -2.887932         0.583172        -1.520821
 O        -2.377259         1.876703        -1.861860
 C        -3.214362         2.722803        -2.650307
 O        -4.284374         2.420251        -3.201630
 H         1.680720        -0.971846         1.260520
 H         2.278464         0.029721        -0.034740
 H         1.560093         0.794821         1.234057
 H        -2.949439         0.522184         0.735358
 H        -2.919839        -1.958031         0.766185
 H        -4.115810        -1.202490        -0.237232
 H        -2.797734        -2.112152        -1.019498
 H        -2.368631        -0.138980        -2.239032
 H        -3.996218         0.517090        -1.656326
 H        -2.489521         3.644847        -2.726318
