19
Iteration:   394
 C         1.424075         0.176551        -0.146989
 C         0.036602        -0.025956        -0.059583
 C        -1.184122         0.182641        -0.159055
 C        -2.691602        -0.080255        -0.060523
 C        -3.118794        -1.614302         0.004010
 C        -3.574481         0.630209        -1.192769
 O        -3.073507         1.982487        -1.236415
 C        -2.637248         2.462217        -2.399772
 O        -2.845501         2.000344        -3.530921
 H         1.739159         0.906482         0.533303
 H         2.045830        -0.723833        -0.261229
 H         1.687859         0.741744        -1.119869
 H        -3.016975         0.268541         0.870292
 H        -2.376991        -2.316362         0.456839
 H        -3.937126        -1.577043         0.727307
 H        -3.384158        -2.034440        -0.984268
 H        -3.433461         0.198951        -2.159949
 H        -4.652323         0.784691        -0.958139
 H        -2.227571         3.475588        -2.291677
