19
Iteration:  1053charge 0 multiplicity 1
 C         1.200020         0.302078         0.875104
 C        -0.159495         0.230937         0.293368
 C        -1.231682         0.199131        -0.222537
 C        -2.592388        -0.110848        -0.740142
 C        -3.107797        -1.625066        -0.413460
 C        -2.785926         0.071990        -2.277116
 O        -2.239866         1.418654        -2.652156
 C        -2.966105         2.603564        -2.307977
 O        -3.791165         2.700177        -1.432789
 H         1.104054        -0.190578         1.866454
 H         1.868507        -0.251109         0.197211
 H         1.628530         1.201240         1.006949
 H        -3.204890         0.637188        -0.213503
 H        -3.975794        -1.632227         0.294817
 H        -3.396068        -2.283446        -1.286400
 H        -2.255412        -2.246562        -0.101199
 H        -2.271598        -0.596503        -2.997833
 H        -3.879334         0.219744        -2.457585
 H        -2.613340         3.414636        -3.056514
