19
Iteration:  4438charge 0 multiplicity 1
 C         1.423596        -0.246730         1.152033
 C         0.196567        -0.304895         0.432271
 C        -0.935356        -0.526518         0.020903
 C        -2.309408        -0.148685        -0.436805
 C        -3.149618        -1.214582        -1.298415
 C        -2.288608         1.088713        -1.361191
 O        -3.530439         1.709842        -1.367517
 C        -3.899510         2.419696        -2.521575
 O        -3.081648         2.647356        -3.366414
 H         2.331404        -0.497444         0.581254
 H         1.731530         0.861301         1.286349
 H         1.286509        -0.706000         2.098126
 H        -2.933536         0.173963         0.430607
 H        -3.574984        -0.363037        -1.812090
 H        -2.458953        -1.729649        -2.020047
 H        -3.897222        -1.710262        -0.670530
 H        -1.570380         1.877837        -0.937753
 H        -1.900661         0.858713        -2.365307
 H        -4.901027         2.929981        -2.330923
