19
Iteration:  2862charge 0 multiplicity 1
 C         1.334565        -0.138722         1.002130
 C        -0.061971         0.054273         0.423493
 C        -1.200826        -0.121928         0.131269
 C        -2.567875        -0.321599        -0.542331
 C        -2.806946        -1.766741        -0.828909
 C        -2.818732         0.575183        -1.749866
 O        -2.870627         1.940235        -1.347652
 C        -3.125446         2.800738        -2.326150
 O        -3.584838         2.666939        -3.432972
 H         2.008385         0.494297         0.377449
 H         1.618183        -0.109423         1.971254
 H         1.791648        -1.123692         0.642611
 H        -3.273666         0.170899         0.150594
 H        -3.925183        -2.025583        -0.984605
 H        -2.358700        -2.145701        -1.777332
 H        -2.418910        -2.507332        -0.076943
 H        -1.934936         0.462253        -2.449543
 H        -3.762861         0.528921        -2.216069
 H        -2.722594         3.813556        -2.095261
