19
Iteration:  3112
 C         1.189068        -0.181623         0.903334
 C        -0.133124         0.222304         0.481778
 C        -1.182044        -0.042876        -0.047158
 C        -2.589756        -0.340240        -0.609859
 C        -2.702822        -1.900305        -0.716575
 C        -2.867232         0.417212        -1.848063
 O        -2.750451         1.847355        -1.414580
 C        -3.099826         2.973342        -2.212014
 O        -3.579726         2.788526        -3.289170
 H         1.307445        -1.003075         1.646145
 H         1.837617        -0.572891         0.008191
 H         1.598420         0.802160         1.308501
 H        -3.291537        -0.057261         0.227377
 H        -3.561162        -2.324742        -1.227241
 H        -1.876906        -2.293280        -1.269092
 H        -2.557837        -2.444326         0.232322
 H        -2.224561         0.058493        -2.728257
 H        -3.857860         0.195037        -2.190970
 H        -2.690543         3.948637        -1.800019
