19
Iteration:  4610
 C         1.414123        -0.921775         0.845124
 C         0.126636        -0.327006         0.615722
 C        -0.986095         0.033867         0.372056
 C        -2.311952         0.140623        -0.198476
 C        -2.766084        -1.179378        -0.830285
 C        -2.289719         1.284125        -1.369810
 O        -3.549393         1.127414        -2.137069
 C        -3.843355         2.214379        -2.996507
 O        -3.374225         3.312509        -2.891094
 H         1.458512        -1.600354         1.784084
 H         1.608946        -1.477494        -0.102926
 H         2.232816        -0.258365         0.882114
 H        -3.144782         0.447309         0.516951
 H        -3.853651        -1.202284        -0.743817
 H        -2.381030        -1.048618        -1.897777
 H        -2.260017        -2.004539        -0.260401
 H        -2.014449         2.332644        -1.027101
 H        -1.458840         1.063196        -2.021770
 H        -4.774818         2.011672        -3.568631
