19
Iteration:    52
 C         1.247240         0.408905        -0.666537
 C        -0.170487         0.205150        -0.316125
 C        -1.390348         0.277056        -0.113326
 C        -2.806548        -0.055684         0.010612
 C        -3.133480        -1.563976         0.275202
 C        -3.698158         0.379605        -1.181726
 O        -3.344892         1.946130        -1.310744
 C        -2.471624         2.408486        -2.304175
 O        -1.992479         1.782650        -3.219473
 H         1.309880         1.627952        -0.692218
 H         1.955957         0.018712         0.033865
 H         1.461801        -0.208137        -1.544090
 H        -3.205383         0.611816         0.842266
 H        -2.289886        -2.053793         0.774917
 H        -4.064760        -1.674230         0.820649
 H        -3.305710        -2.056797        -0.683454
 H        -3.597641        -0.211477        -2.141798
 H        -4.750386         0.353066        -0.965704
 H        -2.224999         3.436198        -2.042594
