19
Iteration:   320
 C         1.345356         0.347579        -0.468842
 C        -0.121451         0.202816        -0.376133
 C        -1.330952         0.146212        -0.229148
 C        -2.760864        -0.140328        -0.031390
 C        -3.276212        -1.642162         0.151171
 C        -3.534659         0.526158        -1.186832
 O        -3.081020         2.021240        -1.137960
 C        -2.699725         2.496046        -2.352609
 O        -2.289075         1.782137        -3.247244
 H         1.954043        -0.153725         0.544149
 H         1.763417        -0.093938        -1.370650
 H         1.626339         1.367761        -0.467295
 H        -3.076453         0.453484         0.940946
 H        -3.321928        -2.040905         1.172760
 H        -4.330411        -1.556473        -0.075572
 H        -2.712350        -2.324037        -0.494947
 H        -3.115516         0.199260        -2.163948
 H        -4.617952         0.620445        -1.196617
 H        -2.895897         3.655605        -2.432923
