19
Iteration:  1339
 C         1.038538         0.655242         0.820030
 C        -0.305914         0.296637         0.271305
 C        -1.394079        -0.007537        -0.158574
 C        -2.667296        -0.333506        -0.831375
 C        -3.130477        -1.786362        -0.561187
 C        -2.805440         0.264696        -2.342257
 O        -2.150127         1.424693        -2.623812
 C        -2.668290         2.593433        -2.088669
 O        -3.602079         2.615391        -1.341663
 H         1.585147        -0.297919         0.628540
 H         1.364701         1.436373         0.062558
 H         0.942416         1.060998         1.771570
 H        -3.433444         0.256747        -0.375387
 H        -4.173088        -1.765673        -0.284932
 H        -3.148140        -2.486897        -1.348906
 H        -2.557898        -2.336929         0.195042
 H        -2.439203        -0.461278        -3.082053
 H        -3.885547         0.438625        -2.493028
 H        -2.225471         3.549448        -2.549995
