19
Iteration:  2251
 C         0.863957         1.059550        -0.060942
 C        -0.388027         0.320573        -0.200788
 C        -1.483987        -0.245954        -0.029526
 C        -2.874803        -0.536613        -0.328052
 C        -3.179731        -2.118978        -0.582237
 C        -3.341458         0.388903        -1.512665
 O        -3.236802         1.804946        -1.198750
 C        -2.443492         2.643042        -1.985812
 O        -1.741994         2.325089        -2.948304
 H         0.950780         1.032944         1.036914
 H         1.714258         0.714629        -0.624672
 H         0.660989         2.076769        -0.482593
 H        -3.435742        -0.277390         0.567538
 H        -4.015779        -2.281675         0.106222
 H        -3.510948        -2.395403        -1.610573
 H        -2.308555        -2.778828        -0.378103
 H        -2.678358         0.205830        -2.308089
 H        -4.397267         0.243123        -1.805709
 H        -2.328282         3.476181        -1.367735
