19
Iteration:  2544charge 0 multiplicity 1
 C         1.238197         0.367371         0.709353
 C         0.002335         0.072852         0.093634
 C        -1.176151        -0.141698        -0.291548
 C        -2.628474        -0.345465        -0.443881
 C        -2.935024        -1.801490        -0.680456
 C        -3.287767         0.438123        -1.611955
 O        -3.347918         1.772008        -1.206154
 C        -2.876045         2.701121        -2.115686
 O        -2.618738         2.581701        -3.302077
 H         1.927899        -0.470867         0.379789
 H         1.651346         1.390987         0.156933
 H         1.084649         0.501462         1.844549
 H        -3.028864         0.098583         0.500755
 H        -3.980864        -2.121004        -0.466663
 H        -2.880428        -2.101956        -1.708588
 H        -2.470110        -2.469532         0.045041
 H        -2.791073         0.383619        -2.592147
 H        -4.323027         0.166413        -1.941106
 H        -2.973683         3.706079        -1.635871
