19
Iteration:   449
 C         1.476008         0.125568        -0.009407
 C         0.031248         0.092589        -0.205388
 C        -1.208448         0.026603        -0.067561
 C        -2.669170        -0.140446        -0.034654
 C        -3.217005        -1.664286        -0.001587
 C        -3.196546         0.575881        -1.182635
 O        -2.880404         2.073116        -1.266994
 C        -2.880388         2.639047        -2.490125
 O        -3.107554         2.021840        -3.539255
 H         1.928313         1.070350         0.284447
 H         1.656251        -0.608211         0.840949
 H         2.014001        -0.436293        -0.908290
 H        -3.094684         0.305387         0.816138
 H        -2.961504        -2.078848         1.000537
 H        -4.275057        -1.683603        -0.250889
 H        -2.735761        -2.265834        -0.811247
 H        -2.971541         0.185714        -2.180032
 H        -4.294574         0.667368        -1.144737
 H        -2.695135         3.695878        -2.494507
