19
Iteration:  2778charge 0 multiplicity 1
 C         1.199533         0.316351         1.060367
 C         0.045819        -0.068364         0.204714
 C        -1.079532        -0.281016        -0.303407
 C        -2.572261        -0.430504        -0.492902
 C        -2.995722        -1.875003        -1.030446
 C        -3.211227         0.631908        -1.373028
 O        -2.727840         1.992576        -1.223774
 C        -2.761404         2.712962        -2.384590
 O        -3.471542         2.571126        -3.362545
 H         0.885664         1.282845         1.577435
 H         1.097736        -0.466474         1.974956
 H         2.218028         0.363123         0.667280
 H        -2.902037        -0.260038         0.545536
 H        -4.017668        -1.799579        -1.221636
 H        -2.407525        -2.049083        -1.913486
 H        -2.834039        -2.453461        -0.114433
 H        -3.142501         0.313067        -2.436872
 H        -4.332263         0.635320        -1.325608
 H        -2.088847         3.574646        -2.184137
