19
Iteration:  2969
 C         1.425528        -0.290582         0.977795
 C         0.067139        -0.094244         0.418853
 C        -1.138941        -0.131587         0.108960
 C        -2.504419        -0.184594        -0.458865
 C        -2.921952        -1.600864        -0.919924
 C        -2.511914         0.703665        -1.715464
 O        -3.104735         1.947893        -1.336041
 C        -3.464224         2.819543        -2.292039
 O        -3.474419         2.506246        -3.467529
 H         1.911984        -0.847584         0.196739
 H         1.902130         0.739253         0.964423
 H         1.307741        -0.818323         1.938520
 H        -3.303562         0.350712         0.069811
 H        -4.004620        -1.538907        -1.173528
 H        -2.337457        -2.031892        -1.718039
 H        -2.867614        -2.296713        -0.100344
 H        -1.464200         0.761795        -2.115089
 H        -3.062128         0.221439        -2.493923
 H        -3.462252         3.777735        -1.777548
