19
Iteration:   315charge 0 multiplicity 1
 C         1.323519         0.371744        -0.456853
 C        -0.114684         0.145929        -0.382381
 C        -1.350200         0.161868        -0.207063
 C        -2.760889        -0.122020        -0.037522
 C        -3.290516        -1.612965         0.146162
 C        -3.497351         0.576584        -1.195713
 O        -3.114866         1.986163        -1.137935
 C        -2.673174         2.502768        -2.335392
 O        -2.258492         1.775739        -3.247825
 H         1.959077        -0.116612         0.147284
 H         1.713134        -0.074070        -1.406546
 H         1.596450         1.482688        -0.492882
 H        -3.017425         0.423469         0.807084
 H        -3.228650        -1.963651         1.190935
 H        -4.377559        -1.798226        -0.137654
 H        -2.690532        -2.349248        -0.407873
 H        -3.243584         0.100099        -2.139559
 H        -4.612500         0.494518        -1.036660
 H        -2.954590         3.543158        -2.357555
