19
Iteration:    31charge 0 multiplicity 1
 C         1.250431         0.401768        -0.593169
 C        -0.172341         0.174233        -0.190520
 C        -1.378875         0.060570        -0.121231
 C        -2.793317        -0.072180         0.037800
 C        -3.038739        -1.598633         0.282960
 C        -3.541873         0.612627        -1.193920
 O        -3.397760         2.027409        -1.423943
 C        -2.515678         2.332263        -2.271038
 O        -2.162815         1.820243        -3.334357
 H         1.545857         1.548402        -0.244727
 H         1.802150        -0.262153        -0.053318
 H         1.341717        -0.005745        -1.529227
 H        -3.174304         0.443881         0.984865
 H        -2.180437        -1.949403         0.850038
 H        -3.933592        -1.657930         0.876079
 H        -3.183949        -2.218485        -0.586791
 H        -3.303330         0.031302        -2.113294
 H        -4.580123         0.453460        -1.044423
 H        -2.278740         3.347311        -2.059684
