19
Iteration:  3166charge 0 multiplicity 1
 C         1.103637         0.269919         0.713770
 C        -0.223877        -0.170810         0.430364
 C        -1.431792        -0.142551         0.159598
 C        -2.703721        -0.348354        -0.467233
 C        -2.700382        -1.847493        -0.874653
 C        -2.791581         0.487840        -1.799580
 O        -2.465009         1.808965        -1.507920
 C        -2.905837         2.905177        -2.207245
 O        -3.632735         2.716524        -3.139479
 H         1.211205         0.180972         1.777799
 H         1.673345        -0.660216         0.318399
 H         1.367740         1.234881         0.327126
 H        -3.490064        -0.267090         0.316699
 H        -3.684913        -2.046463        -1.297852
 H        -2.100017        -2.105876        -1.705152
 H        -2.585546        -2.652503        -0.138239
 H        -1.934923        -0.023838        -2.364176
 H        -3.777389         0.434087        -2.206164
 H        -2.494526         3.896631        -1.758618
