19
Iteration:  4697charge 0 multiplicity 1
 C         1.438622        -0.679021         1.092442
 C         0.254655        -0.346589         0.465344
 C        -0.872243        -0.339092         0.008255
 C        -2.226860         0.137950        -0.316372
 C        -3.176630        -1.024245        -0.718861
 C        -2.158839         1.108829        -1.497927
 O        -3.291156         1.055919        -2.382217
 C        -3.949134         2.258365        -2.806981
 O        -3.538424         3.407021        -2.598542
 H         1.695319        -0.184642         2.098677
 H         1.541390        -1.721660         1.359294
 H         2.139940        -0.260784         0.409959
 H        -2.572454         0.677430         0.643841
 H        -3.781568        -0.853284        -1.622109
 H        -2.765625        -2.053664        -0.914721
 H        -3.897124        -1.283095         0.090450
 H        -2.008593         2.204271        -1.080384
 H        -1.256426         1.004823        -2.120488
 H        -4.769900         1.901292        -3.530981
