19
Iteration:  2125
 C         1.073533         0.862145        -0.023102
 C        -0.318475         0.399390        -0.184483
 C        -1.511427         0.259795        -0.247128
 C        -2.884767        -0.353186        -0.454300
 C        -2.811269        -1.837949        -0.787989
 C        -3.677159         0.445525        -1.384343
 O        -3.529084         1.855035        -1.169832
 C        -2.525164         2.390358        -1.990335
 O        -1.662275         1.808542        -2.635726
 H         1.809858         0.092003        -0.457716
 H         1.160125         1.757423        -0.725816
 H         1.421576         0.801529         0.979766
 H        -3.439495        -0.291473         0.511890
 H        -2.503567        -2.025525        -1.872885
 H        -2.090989        -2.328659        -0.136099
 H        -3.799635        -2.292817        -0.802116
 H        -3.494861         0.304011        -2.494815
 H        -4.741883         0.218749        -1.164123
 H        -2.593501         3.373538        -1.696837
