19
Iteration:  3926
 C         1.426512        -0.455572         0.471940
 C        -0.015248        -0.418257         0.487617
 C        -1.198313        -0.233126         0.306935
 C        -2.455261         0.097372        -0.231061
 C        -2.988176        -0.878726        -1.403597
 C        -2.147689         1.463077        -0.888746
 O        -3.493381         2.041025        -1.211007
 C        -3.768404         2.093175        -2.555231
 O        -3.038714         1.902047        -3.546532
 H         1.991515        -0.452484        -0.496872
 H         1.973183         0.369782         1.010822
 H         1.824202        -1.433105         0.969984
 H        -3.294986         0.134958         0.559422
 H        -3.452449        -0.249581        -2.125486
 H        -2.254315        -1.659441        -1.707362
 H        -3.814893        -1.561034        -1.275252
 H        -1.529765         2.138372        -0.325255
 H        -1.613769         1.216924        -1.740660
 H        -4.790356         2.603695        -2.625712
