19
Iteration:  1757
 C         1.398212        -0.163663         0.899589
 C         0.051571        -0.018347         0.425764
 C        -1.015887         0.070848        -0.144062
 C        -2.439434        -0.207407        -0.432463
 C        -2.844004        -1.658566        -0.444748
 C        -2.847951         0.574348        -1.748368
 O        -2.723530         1.958756        -1.462092
 C        -3.195570         2.753518        -2.480371
 O        -3.950945         2.430833        -3.424286
 H         1.670114        -1.191178         0.954372
 H         1.943331         0.439030         0.187857
 H         1.556671         0.152948         1.984141
 H        -3.024524         0.117286         0.451617
 H        -3.596520        -1.697154         0.328750
 H        -3.363829        -2.095386        -1.333406
 H        -2.020294        -2.357071        -0.237070
 H        -2.212064         0.226599        -2.609550
 H        -3.920306         0.409511        -1.959160
 H        -2.755065         3.795685        -2.138056
