19
Iteration:  4572
 C         1.326124        -0.863784         0.768651
 C         0.076384        -0.204908         0.708224
 C        -1.064396        -0.022006         0.341602
 C        -2.351039         0.162130        -0.272911
 C        -2.733239        -1.213965        -0.995516
 C        -2.180760         1.295363        -1.324945
 O        -3.535997         1.227101        -1.956904
 C        -3.947991         2.243627        -2.733260
 O        -3.187831         3.098509        -3.098739
 H         1.384492        -1.795596         1.225156
 H         1.675207        -0.864670        -0.281774
 H         2.096698        -0.151740         1.241479
 H        -3.101525         0.414738         0.489424
 H        -3.771501        -1.577717        -0.897722
 H        -2.593635        -1.134590        -2.010283
 H        -2.237056        -2.124487        -0.744652
 H        -2.182962         2.284982        -0.982629
 H        -1.348005         0.956375        -2.040395
 H        -5.077011         2.263657        -2.645413
