19
Iteration:  1884
 C         1.356734         0.260530         0.543188
 C        -0.036357        -0.007894         0.222642
 C        -1.233616         0.013447         0.020581
 C        -2.694311        -0.286743        -0.262199
 C        -2.960639        -1.772776        -0.606965
 C        -2.993589         0.517615        -1.573221
 O        -2.927918         1.907401        -1.226616
 C        -3.021985         2.734275        -2.353457
 O        -3.170151         2.339880        -3.491698
 H         1.436986         0.493914         1.657608
 H         1.919088        -0.740443         0.381268
 H         1.661540         0.997259        -0.145658
 H        -3.301628         0.191238         0.481383
 H        -3.236033        -1.727805        -1.690790
 H        -2.043867        -2.393338        -0.394066
 H        -3.816326        -2.239180        -0.091998
 H        -2.339837         0.285679        -2.379484
 H        -4.014075         0.193723        -1.864457
 H        -2.907390         3.714487        -1.981907
