19
Iteration:  1958
 C         1.299754         0.559282         0.272238
 C        -0.164745         0.119977         0.237710
 C        -1.337524        -0.010168        -0.053211
 C        -2.743443        -0.360508        -0.238615
 C        -3.094884        -1.899355        -0.472478
 C        -3.059297         0.296470        -1.624153
 O        -3.112298         1.728414        -1.310753
 C        -2.782503         2.662741        -2.174191
 O        -2.721742         2.567368        -3.367856
 H         1.383418         1.618473         0.425391
 H         1.791230         0.164153         1.115930
 H         1.574489         0.284269        -0.742371
 H        -3.286103         0.168300         0.561922
 H        -3.972198        -2.143821         0.088333
 H        -3.511149        -1.908081        -1.488729
 H        -2.273425        -2.590488        -0.357080
 H        -2.315875        -0.017202        -2.367896
 H        -4.067026        -0.086267        -1.936046
 H        -2.594474         3.588953        -1.442208
