19
Iteration:   731charge 0 multiplicity 1
 C         1.471739        -0.280886         0.573399
 C         0.095585         0.013647         0.434907
 C        -1.057542         0.100682         0.006514
 C        -2.407526        -0.071017        -0.502199
 C        -3.032207        -1.350074        -0.068251
 C        -2.773236         0.470984        -1.825914
 O        -2.427301         1.809769        -1.884403
 C        -3.182494         2.673201        -2.530361
 O        -4.253486         2.408729        -2.978407
 H         1.575084        -0.666131         1.735538
 H         1.762102        -1.107950        -0.124680
 H         2.275938         0.344657         0.370695
 H        -2.943461         0.726547        -0.023829
 H        -2.437831        -1.689379         0.788485
 H        -4.069787        -1.441534         0.173894
 H        -3.053105        -2.086659        -0.881245
 H        -2.345109         0.027198        -2.696754
 H        -3.851892         0.416432        -1.920674
 H        -2.622231         3.540475        -2.318020
