19
Iteration:  1882
 C         1.345408         0.244975         0.546396
 C        -0.028364        -0.015022         0.237832
 C        -1.228546         0.023932         0.031728
 C        -2.672566        -0.273238        -0.266750
 C        -2.956182        -1.759644        -0.630080
 C        -2.993801         0.510089        -1.570397
 O        -2.932196         1.904966        -1.230151
 C        -3.022845         2.742054        -2.361565
 O        -3.184473         2.328609        -3.490858
 H         1.375257         0.491492         1.618399
 H         1.911035        -0.687942         0.315308
 H         1.742501         1.018746        -0.105300
 H        -3.270040         0.180237         0.500926
 H        -3.249517        -1.816389        -1.709820
 H        -2.115204        -2.377726        -0.313905
 H        -3.831294        -2.192194        -0.120769
 H        -2.335102         0.255560        -2.412281
 H        -4.037994         0.186505        -1.819994
 H        -2.856131         3.759720        -1.897308
