19
Iteration:  4406charge 0 multiplicity 1
 C         1.405605        -0.140103         1.044523
 C         0.019694        -0.564208         0.641865
 C        -1.044789        -0.498126         0.042742
 C        -2.383456        -0.102123        -0.529483
 C        -3.007346        -1.336330        -1.285582
 C        -2.110941         1.201835        -1.347568
 O        -3.390902         1.829614        -1.326183
 C        -3.866377         2.449647        -2.457822
 O        -3.215004         2.617195        -3.477937
 H         2.010300        -0.206751         0.141759
 H         1.255573         0.922531         1.455748
 H         1.944881        -0.767439         1.756489
 H        -3.118169         0.247178         0.259930
 H        -4.091737        -1.116323        -1.422449
 H        -2.511048        -1.542678        -2.281129
 H        -3.099887        -2.286710        -0.714749
 H        -1.453325         1.799412        -0.641907
 H        -1.735418         0.951532        -2.363260
 H        -4.885448         2.944371        -2.263877
