19
Iteration:  4049charge 0 multiplicity 1
 C         1.474799        -0.568175         0.986503
 C         0.129876        -0.403607         0.363378
 C        -1.026437        -0.330593        -0.008140
 C        -2.327853         0.158065        -0.354298
 C        -3.148330        -0.828698        -1.415764
 C        -2.068849         1.554415        -1.029942
 O        -3.395883         2.060482        -1.261727
 C        -3.923622         2.140565        -2.537991
 O        -3.293410         1.849904        -3.517698
 H         1.942137        -1.635875         1.283685
 H         2.229776        -0.141853         0.378563
 H         1.419582        -0.260404         2.049361
 H        -3.000201         0.298705         0.573869
 H        -3.705960        -1.565677        -0.804603
 H        -3.972112        -0.329053        -2.011780
 H        -2.413176        -1.368162        -2.083916
 H        -1.574229         2.278807        -0.370079
 H        -1.397733         1.351173        -1.850275
 H        -5.046892         2.355432        -2.379898
