19
Iteration:   527
 C         1.511262        -0.014529         0.066918
 C         0.045919         0.011910         0.209148
 C        -1.169140        -0.085703         0.143628
 C        -2.613661        -0.142208        -0.178691
 C        -3.149493        -1.611629         0.105910
 C        -2.990652         0.480858        -1.536003
 O        -2.717642         1.969747        -1.428847
 C        -3.013763         2.757230        -2.514624
 O        -3.527093         2.312350        -3.546931
 H         1.715324         0.460842        -0.956407
 H         2.036291         0.692605         0.697611
 H         1.804027        -1.119543        -0.108227
 H        -3.102799         0.443988         0.554771
 H        -2.791570        -1.832060         1.152215
 H        -4.254702        -1.659815         0.155211
 H        -2.656396        -2.373276        -0.545806
 H        -2.516209         0.117972        -2.514068
 H        -4.075573         0.438501        -1.735293
 H        -2.905529         3.798730        -2.284254
