19
Iteration:  3753charge 0 multiplicity 1
 C         1.469235        -0.921996         0.944208
 C         0.292169        -0.540240         0.268906
 C        -0.865901        -0.232583         0.074837
 C        -2.180679         0.269359        -0.249028
 C        -2.986136        -0.826046        -1.031995
 C        -2.353183         1.648377        -0.994445
 O        -3.695699         1.759141        -1.425017
 C        -3.938711         1.975933        -2.747418
 O        -3.226432         2.484768        -3.612479
 H         1.820052        -0.111755         1.648479
 H         1.335825        -1.840322         1.387185
 H         2.410973        -1.035171         0.474555
 H        -2.749166         0.343367         0.653437
 H        -4.000855        -0.857767        -0.564633
 H        -3.137887        -0.738960        -2.116584
 H        -2.688085        -1.837249        -0.787002
 H        -2.151036         2.513092        -0.192366
 H        -1.598186         1.667625        -1.798700
 H        -4.963599         1.746835        -2.936908
