19
Iteration:  1381
 C         0.972886         0.452105         0.985148
 C        -0.239331         0.183674         0.232054
 C        -1.253829         0.061129        -0.327814
 C        -2.603772        -0.108883        -0.766510
 C        -3.083353        -1.570018        -0.611612
 C        -2.714307         0.205701        -2.261011
 O        -2.250458         1.439224        -2.697051
 C        -2.853137         2.535681        -2.166034
 O        -3.697324         2.534099        -1.328673
 H         1.377169        -0.371897         1.699272
 H         1.862419         0.776151         0.342003
 H         0.811619         1.392871         1.484244
 H        -3.190816         0.545719        -0.101330
 H        -3.445066        -1.748327         0.423909
 H        -4.048489        -1.668230        -1.212105
 H        -2.250941        -2.335947        -0.846870
 H        -2.031031        -0.486467        -2.756688
 H        -3.705197         0.013660        -2.625528
 H        -2.129839         3.420671        -2.628618
