19
Iteration:   481charge 0 multiplicity 1
 C         1.557096         0.131447        -0.010941
 C         0.081634        -0.083694        -0.018199
 C        -1.174632        -0.098704         0.013089
 C        -2.694374        -0.018057        -0.039148
 C        -3.177824        -1.472447        -0.018817
 C        -3.165367         0.513553        -1.364025
 O        -2.854606         1.957518        -1.328529
 C        -2.960859         2.640897        -2.473600
 O        -3.274483         2.132703        -3.502716
 H         1.984750         1.058026        -0.275808
 H         1.817027         0.075980         1.056708
 H         1.997038        -0.696185        -0.740734
 H        -3.103964         0.598497         0.734030
 H        -3.489546        -1.947747         0.936917
 H        -4.070830        -1.593475        -0.669229
 H        -2.339444        -2.067769        -0.480202
 H        -2.680651         0.017418        -2.215576
 H        -4.278342         0.398026        -1.489667
 H        -2.574282         3.584314        -2.257226
