19
Iteration:  2836charge 0 multiplicity 1
 C         1.213603        -0.044527         1.013470
 C        -0.070676        -0.004139         0.360950
 C        -1.161660        -0.102704        -0.169235
 C        -2.549800        -0.358609        -0.475602
 C        -2.816952        -1.814508        -0.870664
 C        -3.004264         0.577248        -1.653765
 O        -2.689471         2.025013        -1.360262
 C        -3.094794         2.886865        -2.284648
 O        -3.491545         2.487310        -3.353965
 H         1.707433         0.932565         0.907275
 H         1.179734        -0.087554         2.181961
 H         1.928111        -0.809283         0.768583
 H        -3.091714        -0.000223         0.420372
 H        -3.910405        -2.012112        -0.731067
 H        -2.670016        -1.963695        -1.964695
 H        -2.230601        -2.615056        -0.435172
 H        -2.443968         0.298579        -2.516865
 H        -4.095875         0.683757        -1.787392
 H        -2.879910         3.940626        -2.101108
