19
Iteration:  3125charge 0 multiplicity 1
 C         1.186113        -0.081380         0.829354
 C        -0.207764         0.131278         0.444473
 C        -1.323530        -0.055807         0.026648
 C        -2.575136        -0.388788        -0.539317
 C        -2.633401        -1.923729        -0.732120
 C        -2.923612         0.469969        -1.867485
 O        -2.601605         1.865231        -1.480173
 C        -3.045059         2.852231        -2.173748
 O        -3.585763         2.824587        -3.274686
 H         1.067917        -0.693687         1.790794
 H         1.715223        -0.537521         0.003671
 H         1.826277         0.860211         1.132446
 H        -3.417534        -0.074667         0.134721
 H        -3.629258        -2.232844        -1.078968
 H        -1.811274        -2.236377        -1.399944
 H        -2.509463        -2.284421         0.309067
 H        -2.163325         0.247096        -2.632685
 H        -3.976729         0.398098        -2.174791
 H        -3.057249         3.723118        -1.499380
