19
Iteration:  4376
 C         1.407649        -0.247694         1.012557
 C        -0.018242        -0.463281         0.609339
 C        -1.155243        -0.445050         0.205655
 C        -2.429387        -0.143460        -0.496794
 C        -2.810080        -1.419359        -1.321933
 C        -2.118475         1.173394        -1.254676
 O        -3.373191         1.965861        -1.262191
 C        -3.807897         2.558984        -2.502206
 O        -3.338071         2.541377        -3.611213
 H         1.864897         0.038824         0.108202
 H         1.486694         0.488030         1.783992
 H         2.021169        -1.193989         1.311761
 H        -3.276401         0.132189         0.146259
 H        -3.950659        -1.553673        -1.316735
 H        -2.787678        -1.411809        -2.343590
 H        -2.400394        -2.401129        -1.117390
 H        -1.308835         1.683544        -0.739381
 H        -1.652560         1.012290        -2.305322
 H        -4.674683         3.156572        -2.208640
