19
Iteration:   480
 C         1.553785         0.129941        -0.013224
 C         0.085513        -0.079728        -0.030182
 C        -1.174843        -0.094203         0.021064
 C        -2.686357        -0.026959        -0.047793
 C        -3.177831        -1.469353        -0.012746
 C        -3.170333         0.516578        -1.354694
 O        -2.855819         1.951295        -1.324470
 C        -2.965733         2.638374        -2.474066
 O        -3.266920         2.129992        -3.503549
 H         1.963016         1.045166        -0.215225
 H         1.798346         0.089936         1.047612
 H         1.976720        -0.689801        -0.744361
 H        -3.111657         0.595864         0.754775
 H        -3.491085        -1.948206         0.933324
 H        -4.052053        -1.569961        -0.700569
 H        -2.365971        -2.057884        -0.515767
 H        -2.703477         0.062106        -2.213767
 H        -4.280722         0.430138        -1.513925
 H        -2.554620         3.591824        -2.284096
