19
Iteration:   806
 C         1.485903        -0.110803         0.627079
 C         0.074751        -0.280412         0.237018
 C        -1.133153        -0.014974         0.079173
 C        -2.495047         0.072915        -0.420652
 C        -3.165881        -1.361341        -0.164318
 C        -2.553743         0.463012        -1.891917
 O        -2.246146         1.868578        -2.020597
 C        -3.218237         2.665620        -2.557966
 O        -4.366442         2.372190        -2.681481
 H         1.893857         0.875867         1.041542
 H         1.769204        -0.908677         1.359005
 H         2.102357        -0.348958        -0.186880
 H        -3.048576         0.849949         0.117153
 H        -3.498968        -1.340843         0.910459
 H        -4.083325        -1.636418        -0.770997
 H        -2.432001        -2.222972        -0.195075
 H        -1.840796        -0.110771        -2.513357
 H        -3.586946         0.352601        -2.310194
 H        -2.640943         3.660334        -2.758554
