19
Iteration:   841charge 0 multiplicity 1
 C         1.473902        -0.096758         0.609930
 C         0.046210         0.025536         0.459630
 C        -1.050100        -0.185019        -0.000843
 C        -2.432075        -0.025481        -0.480796
 C        -3.325795        -1.309969        -0.312007
 C        -2.556149         0.472580        -1.891096
 O        -2.167505         1.852732        -2.105085
 C        -3.198107         2.609905        -2.557729
 O        -4.358355         2.324646        -2.494084
 H         2.118903         0.827778         0.272880
 H         1.660164        -0.343591         1.673506
 H         1.772556        -0.919108         0.024677
 H        -2.835694         0.740236         0.159521
 H        -3.333136        -1.424550         0.792624
 H        -4.364528        -1.083224        -0.647916
 H        -2.851904        -2.230162        -0.812971
 H        -2.043466        -0.171877        -2.600085
 H        -3.621708         0.417793        -2.009205
 H        -2.806596         3.686458        -2.824320
