19
Iteration:     2
 C         1.328997         0.339713        -0.402445
 C        -0.107001         0.209878        -0.243798
 C        -1.308542         0.093938        -0.115982
 C        -2.753389        -0.043257         0.017810
 C        -3.161600        -1.516055         0.227054
 C        -3.487325         0.534552        -1.207658
 O        -3.245134         1.950809        -1.289435
 C        -2.650337         2.426181        -2.412075
 O        -2.354288         1.790036        -3.384513
 H         1.658776         1.102402         0.209031
 H         1.879218        -0.617738        -0.129778
 H         1.571412         0.541615        -1.483269
 H        -3.081693         0.529932         0.878774
 H        -2.635483        -1.929212         1.096832
 H        -4.252323        -1.621116         0.361305
 H        -2.867392        -2.111323        -0.655958
 H        -3.157094         0.048190        -2.118010
 H        -4.580475         0.355499        -1.099781
 H        -2.473079         3.527398        -2.270236
