19
Iteration:    11charge 0 multiplicity 1
 C         1.303565         0.318499        -0.464825
 C        -0.129287         0.227827        -0.213920
 C        -1.300015         0.022766        -0.123142
 C        -2.778409        -0.041107         0.036933
 C        -3.121767        -1.535853         0.264450
 C        -3.552318         0.515073        -1.202000
 O        -3.334951         1.991344        -1.280641
 C        -2.559436         2.502901        -2.440288
 O        -2.297772         1.770773        -3.390447
 H         1.537110         1.353944         0.188117
 H         1.946569        -0.432638        -0.101718
 H         1.389985         0.434545        -1.513947
 H        -3.061741         0.586426         0.924775
 H        -2.389542        -1.948352         0.941774
 H        -4.135889        -1.816427         0.520957
 H        -2.868208        -1.969518        -0.693683
 H        -3.104581         0.045286        -2.095540
 H        -4.554988         0.173982        -1.161587
 H        -2.186481         3.475944        -2.197751
