19
Iteration:  1869charge 0 multiplicity 1
 C         1.371783         0.163602         0.568593
 C        -0.043851        -0.011736         0.294805
 C        -1.225760         0.012452         0.100368
 C        -2.511320        -0.201451        -0.363188
 C        -2.954611        -1.702208        -0.688291
 C        -3.051242         0.491228        -1.523332
 O        -2.957953         1.934471        -1.317038
 C        -3.009272         2.687940        -2.342618
 O        -3.280510         2.317402        -3.451816
 H         1.571881         0.223952         1.627148
 H         2.032634        -0.625186         0.341114
 H         1.719024         1.191393         0.209116
 H        -3.191868        -0.091366         0.498901
 H        -2.759247        -2.103015        -1.700203
 H        -2.382912        -2.399725        -0.108290
 H        -3.988949        -1.635942        -0.324074
 H        -2.419027         0.218170        -2.434390
 H        -4.108446         0.290156        -1.777826
 H        -2.786601         3.856190        -2.221895
