19
Iteration:  4309
 C         1.381532        -0.702417         1.120525
 C         0.030922        -0.326136         0.630676
 C        -1.059088        -0.155573         0.068805
 C        -2.324773         0.008550        -0.555465
 C        -2.631827        -1.290728        -1.359185
 C        -2.230306         1.309114        -1.336029
 O        -3.541761         2.056070        -1.318632
 C        -3.912555         2.544524        -2.457119
 O        -3.344790         2.195486        -3.483961
 H         2.078536         0.059829         0.908967
 H         1.231791        -1.035919         2.172775
 H         1.970688        -1.455851         0.412876
 H        -3.087552         0.153752         0.246930
 H        -3.769411        -1.388983        -1.231703
 H        -2.270387        -1.165260        -2.368573
 H        -2.178855        -2.130868        -0.780248
 H        -1.574864         1.989893        -0.659396
 H        -1.790992         1.238946        -2.379186
 H        -4.716349         3.289607        -2.462224
