19
Iteration:  2004charge 0 multiplicity 1
 C         1.169302         0.684236         0.207335
 C        -0.191714         0.263970         0.012833
 C        -1.309433        -0.173982        -0.094994
 C        -2.830405        -0.502655        -0.341945
 C        -3.012412        -2.030239        -0.357874
 C        -3.302583         0.403826        -1.612374
 O        -3.217791         1.846990        -1.256166
 C        -2.706284         2.747835        -2.130934
 O        -2.347600         2.421520        -3.258512
 H         1.318968         1.663715        -0.298572
 H         1.246890         0.972009         1.272663
 H         1.813153        -0.022717        -0.175617
 H        -3.343756        -0.175690         0.549227
 H        -2.701055        -2.463475         0.593299
 H        -4.065878        -2.366604        -0.523975
 H        -2.414235        -2.401871        -1.197500
 H        -2.625653         0.155090        -2.404587
 H        -4.353242         0.191453        -1.973852
 H        -2.825267         3.666715        -1.425200
