19
Iteration:  3023
 C         1.374582        -0.164608         1.088070
 C         0.049389        -0.345369         0.486694
 C        -0.934712        -0.241824        -0.149281
 C        -2.385147        -0.322116        -0.424938
 C        -2.886013        -1.682263        -0.928794
 C        -2.814940         0.755743        -1.648331
 O        -3.037633         2.200389        -1.288140
 C        -3.508782         2.924124        -2.381726
 O        -3.402622         2.454384        -3.507733
 H         1.847818        -1.145766         1.049977
 H         2.005990         0.632222         0.472024
 H         1.197883         0.056896         2.164039
 H        -2.975819         0.141882         0.410760
 H        -3.975375        -1.628176        -0.896786
 H        -2.638975        -1.740648        -1.961072
 H        -2.455502        -2.465684        -0.369476
 H        -1.879680         0.759181        -2.244751
 H        -3.774688         0.428204        -2.068809
 H        -4.259125         3.641491        -1.962090
