19
Iteration:  1767
 C         1.376885        -0.168741         0.898297
 C         0.036339        -0.023143         0.383920
 C        -1.054444         0.049543        -0.117011
 C        -2.411467        -0.134577        -0.491799
 C        -2.827991        -1.643228        -0.483960
 C        -2.926880         0.534418        -1.642006
 O        -2.738077         1.929199        -1.445463
 C        -3.194024         2.706578        -2.480760
 O        -3.868563         2.439021        -3.406028
 H         1.698301        -1.193440         0.976174
 H         2.127163         0.338471         0.237298
 H         1.406222         0.463151         1.793663
 H        -2.942450         0.467285         0.330313
 H        -3.254320        -1.902506         0.448501
 H        -3.457187        -1.807474        -1.371985
 H        -1.888811        -2.209976        -0.448037
 H        -2.318635         0.246839        -2.518561
 H        -3.956764         0.247303        -1.870469
 H        -2.919668         3.845865        -2.397985
