19
Iteration:  3881
 C         1.478707        -0.748519         0.399687
 C         0.051649        -0.389043         0.592055
 C        -1.132977        -0.171711         0.404098
 C        -2.428239         0.189839        -0.207324
 C        -2.771972        -0.994867        -1.219349
 C        -2.289042         1.595459        -0.860668
 O        -3.693867         1.975419        -1.314840
 C        -3.795167         2.128079        -2.688880
 O        -3.028493         2.076558        -3.613873
 H         1.875317        -0.176020        -0.406369
 H         2.068705        -0.345793         1.276223
 H         1.531465        -1.882361         0.172430
 H        -3.268494         0.386390         0.548158
 H        -3.438525        -0.717624        -2.056361
 H        -1.946379        -1.560839        -1.621923
 H        -3.296885        -1.830562        -0.820575
 H        -1.947557         2.253702        -0.159455
 H        -1.724512         1.665581        -1.774752
 H        -4.887277         2.286448        -2.958334
