19
Iteration:  1669charge 0 multiplicity 1
 C         1.405383        -0.070554         0.796946
 C         0.040521        -0.119339         0.483685
 C        -1.091239        -0.110211         0.077293
 C        -2.437233        -0.048742        -0.470541
 C        -3.121540        -1.554536        -0.506738
 C        -2.487693         0.540449        -1.881285
 O        -2.351489         2.005418        -1.698782
 C        -3.322450         2.719640        -2.427334
 O        -4.224424         2.295615        -3.091975
 H         2.083757        -0.233318        -0.012762
 H         1.654617         0.890273         1.296450
 H         1.643227        -0.818663         1.635462
 H        -3.096962         0.600555         0.097931
 H        -2.921584        -2.073624        -1.450109
 H        -2.514095        -2.100807         0.257372
 H        -4.221304        -1.477406        -0.414828
 H        -1.741878         0.134743        -2.593244
 H        -3.512040         0.419017        -2.308851
 H        -3.216637         3.793975        -2.356259
