19
Iteration:  3776charge 0 multiplicity 1
 C         1.525009        -1.011965         0.916547
 C         0.241325        -0.457358         0.433674
 C        -0.769880        -0.079855        -0.173928
 C        -2.255152         0.288596        -0.331257
 C        -3.086745        -0.853286        -0.972709
 C        -2.377220         1.693004        -0.955942
 O        -3.784160         1.742869        -1.456865
 C        -3.942355         1.969919        -2.745697
 O        -3.083888         2.396126        -3.489747
 H         2.126549        -0.168010         1.403056
 H         1.369099        -1.811361         1.583060
 H         2.314325        -1.358449         0.352166
 H        -2.675469         0.424936         0.647366
 H        -3.976106        -1.269361        -0.514486
 H        -3.321266        -0.460732        -1.995202
 H        -2.487304        -1.767221        -1.147209
 H        -2.129697         2.415857        -0.037556
 H        -1.690846         1.827874        -1.783073
 H        -4.896522         1.581257        -3.058682
