19
Iteration:  3025
 C         1.348405        -0.152658         1.079739
 C         0.052444        -0.356151         0.468671
 C        -0.944793        -0.243523        -0.148277
 C        -2.386455        -0.313908        -0.439473
 C        -2.868788        -1.694232        -0.916567
 C        -2.804021         0.742230        -1.640393
 O        -3.034986         2.203879        -1.287341
 C        -3.510748         2.919101        -2.377738
 O        -3.405546         2.467627        -3.515534
 H         1.825463        -1.186626         1.096781
 H         1.996368         0.582254         0.514652
 H         1.281513         0.104209         2.237138
 H        -2.979582         0.107257         0.440363
 H        -3.978031        -1.581875        -0.918998
 H        -2.633080        -1.706461        -1.980239
 H        -2.416196        -2.495367        -0.281349
 H        -1.877480         0.720106        -2.293271
 H        -3.791923         0.514132        -1.951064
 H        -4.230813         3.628362        -1.971612
