19
Iteration:  1929
 C         1.273471         0.412470         0.351827
 C        -0.190786         0.179987         0.173424
 C        -1.331842        -0.189024         0.121420
 C        -2.655974        -0.415016        -0.380565
 C        -2.995937        -1.910821        -0.429212
 C        -3.041727         0.445546        -1.629811
 O        -2.984720         1.905303        -1.234917
 C        -2.943335         2.744413        -2.262007
 O        -2.855766         2.501589        -3.467287
 H         1.396804         1.379418         0.989211
 H         1.851818        -0.496089         0.848893
 H         1.650776         0.519064        -0.653959
 H        -3.217829        -0.054464         0.479077
 H        -4.122002        -1.886103        -0.392082
 H        -2.541811        -2.493437        -1.294405
 H        -2.587509        -2.540546         0.410918
 H        -2.414951         0.230640        -2.476544
 H        -4.090011         0.223984        -1.928636
 H        -3.052499         3.634268        -1.724200
