19
Iteration:   293
 C         1.216332         0.445788        -0.632687
 C        -0.147821         0.033943        -0.293811
 C        -1.319589        -0.038756        -0.105952
 C        -2.760542        -0.061956         0.013449
 C        -3.158738        -1.502001         0.150914
 C        -3.580809         0.534986        -1.180771
 O        -3.288439         2.004945        -1.229307
 C        -2.569471         2.449049        -2.294342
 O        -2.139445         1.823020        -3.246445
 H         1.955152        -0.097434        -0.158527
 H         1.591724         0.408129        -1.686670
 H         1.282417         1.518038        -0.211954
 H        -3.041655         0.500918         0.847892
 H        -3.209207        -1.896677         1.174324
 H        -4.232280        -1.579798        -0.199185
 H        -2.547077        -2.210933        -0.428078
 H        -3.244299         0.058755        -2.114978
 H        -4.688519         0.431903        -1.063843
 H        -2.365235         3.501210        -2.060144
