19
Iteration:  3734charge 0 multiplicity 1
 C         1.561424        -0.905069         0.992242
 C         0.237152        -0.572956         0.248695
 C        -0.903987        -0.134506         0.120192
 C        -2.313637         0.218265        -0.183079
 C        -2.977334        -0.862909        -1.057505
 C        -2.203378         1.529574        -1.024613
 O        -3.633893         1.748362        -1.436045
 C        -4.009541         2.126035        -2.721393
 O        -3.288645         2.472572        -3.651676
 H         1.680681        -0.127663         1.858482
 H         1.522137        -2.014078         1.293745
 H         2.314147        -0.744571         0.216070
 H        -2.761528         0.410896         0.836927
 H        -4.021482        -0.812767        -1.206143
 H        -2.320699        -0.884422        -1.962873
 H        -2.866231        -1.874575        -0.594172
 H        -2.010268         2.463245        -0.418176
 H        -1.568584         1.440687        -1.890829
 H        -5.134392         2.052192        -2.872802
