19
Iteration:  4331
 C         1.395207        -0.554939         1.038943
 C         0.027009        -0.258120         0.632331
 C        -1.090057        -0.197327         0.213825
 C        -2.365070        -0.077262        -0.500107
 C        -2.709335        -1.368372        -1.437073
 C        -2.299003         1.212097        -1.321625
 O        -3.509059         2.063697        -1.220856
 C        -3.749619         2.552964        -2.442130
 O        -3.344861         2.274536        -3.575946
 H         2.159246         0.023404         0.625304
 H         1.241133        -0.614860         2.115816
 H         1.758473        -1.576858         0.633519
 H        -3.150424         0.149465         0.255964
 H        -3.763106        -1.827816        -1.387291
 H        -2.527184        -1.147689        -2.486988
 H        -1.982908        -2.169469        -1.160825
 H        -1.428879         1.853926        -0.930587
 H        -2.032806         0.964010        -2.395686
 H        -4.365414         3.458127        -2.358344
