19
Iteration:    43
 C         1.196024         0.362966        -0.607474
 C        -0.171860         0.185275        -0.258469
 C        -1.347015         0.222073        -0.101015
 C        -2.786702        -0.080157        -0.023299
 C        -3.105207        -1.597938         0.289811
 C        -3.628924         0.540440        -1.170191
 O        -3.398943         1.910692        -1.375169
 C        -2.458589         2.437389        -2.302223
 O        -2.070214         1.788384        -3.269867
 H         1.431202         1.548697        -0.731452
 H         1.902886         0.027364         0.022620
 H         1.408239         0.172064        -1.590622
 H        -3.120727         0.458784         0.921229
 H        -2.253012        -2.016933         0.811712
 H        -3.945803        -1.721695         0.950417
 H        -3.249241        -2.196036        -0.597306
 H        -3.425044         0.020747        -2.122719
 H        -4.655257         0.485772        -0.888707
 H        -2.155919         3.410829        -2.019009
