19
Iteration:   624charge 0 multiplicity 1
 C         1.514191        -0.097461         0.448622
 C         0.064114        -0.077434         0.379023
 C        -0.980124        -0.153315        -0.272693
 C        -2.432007        -0.083826        -0.297258
 C        -3.156415        -1.506108        -0.045666
 C        -2.916744         0.597283        -1.500250
 O        -2.471855         1.958793        -1.627628
 C        -3.100943         2.701915        -2.625454
 O        -4.050616         2.313494        -3.269937
 H         1.789289        -1.009765         0.108699
 H         2.058729         0.675195        -0.033714
 H         1.684990        -0.229245         1.602911
 H        -2.830764         0.601742         0.537510
 H        -3.210041        -1.710545         1.048561
 H        -4.181490        -1.363757        -0.356388
 H        -2.571128        -2.328544        -0.532902
 H        -2.827517         0.134726        -2.489022
 H        -3.983255         0.741886        -1.351674
 H        -2.695397         3.789215        -2.857795
