19
Iteration:  3656
 C         1.468976        -0.704292         0.838318
 C         0.089975        -0.316154         0.560319
 C        -1.047959        -0.092240         0.215063
 C        -2.415749         0.060840        -0.364523
 C        -2.746108        -1.356725        -1.026384
 C        -2.268762         1.095886        -1.395587
 O        -3.439610         2.030744        -1.304699
 C        -3.862842         2.499365        -2.489201
 O        -3.412820         2.445458        -3.637713
 H         1.730005        -0.989250         1.964823
 H         1.735376        -1.594613         0.196382
 H         2.313673        -0.033180         0.733508
 H        -3.109576         0.420116         0.439399
 H        -3.266093        -1.204154        -1.953022
 H        -1.903645        -1.890154        -1.475238
 H        -3.391084        -1.968192        -0.429200
 H        -1.342932         1.781246        -1.404393
 H        -2.285018         0.608786        -2.370205
 H        -4.696284         3.249677        -2.313036
