19
Iteration:  4217charge 0 multiplicity 1
 C         1.339389        -1.113546         1.261035
 C         0.167985        -0.544729         0.662469
 C        -0.740243        -0.064011         0.023540
 C        -2.043372         0.334857        -0.425625
 C        -2.752404        -0.827836        -1.336680
 C        -2.096763         1.718395        -1.198045
 O        -3.632174         1.820997        -1.440075
 C        -4.180065         2.053354        -2.611506
 O        -3.529248         2.275781        -3.620741
 H         1.666329        -0.575243         2.221335
 H         1.357969        -2.253586         1.415189
 H         2.176119        -0.865290         0.632299
 H        -2.664238         0.370865         0.525544
 H        -3.042844        -0.198145        -2.159961
 H        -1.989917        -1.568879        -1.617487
 H        -3.678839        -1.086848        -0.872216
 H        -1.978405         2.637381        -0.583729
 H        -1.543659         1.736337        -2.171028
 H        -5.297300         1.799784        -2.564544
