19
Iteration:  1452charge 0 multiplicity 1
 C         1.071108         0.153178         1.143314
 C        -0.201633         0.177113         0.475325
 C        -1.075376         0.006834        -0.371145
 C        -2.509158        -0.061632        -0.863478
 C        -3.002522        -1.480326        -0.488479
 C        -2.642349         0.273673        -2.269324
 O        -2.236205         1.567249        -2.659176
 C        -3.069536         2.530324        -2.317030
 O        -4.013963         2.547156        -1.546674
 H         1.207841         0.164855         2.191276
 H         1.777372        -0.605594         0.869118
 H         1.624620         1.090820         0.770239
 H        -3.103548         0.692447        -0.319514
 H        -2.301436        -2.201205        -0.895718
 H        -2.842007        -1.571050         0.584388
 H        -3.987536        -1.663594        -0.861101
 H        -2.039669        -0.378999        -2.931753
 H        -3.737592         0.170996        -2.556056
 H        -2.663871         3.509316        -2.894028
