19
Iteration:  3651charge 0 multiplicity 1
 C         1.475027        -0.677230         0.848095
 C         0.075630        -0.311048         0.514572
 C        -1.100119        -0.081883         0.209171
 C        -2.427305         0.034479        -0.324282
 C        -2.762950        -1.383086        -1.033720
 C        -2.279403         1.136123        -1.423316
 O        -3.377153         2.007214        -1.315290
 C        -3.843694         2.537829        -2.490673
 O        -3.438694         2.450896        -3.628511
 H         1.508607        -1.064459         1.836148
 H         1.942729        -1.542718         0.375101
 H         2.369240        -0.007012         0.832777
 H        -3.080761         0.360977         0.473315
 H        -3.383973        -1.250266        -1.973178
 H        -1.818747        -1.879435        -1.335973
 H        -3.175229        -2.177503        -0.331988
 H        -1.365508         1.690864        -1.473727
 H        -2.246515         0.466267        -2.363628
 H        -4.588739         3.254450        -2.173100
