19
Iteration:  3559
 C         1.484988        -0.279922         1.308084
 C         0.149839        -0.316131         0.547430
 C        -0.914507        -0.427330        -0.056709
 C        -2.288989        -0.127238        -0.642316
 C        -3.083049        -1.397545        -0.894626
 C        -2.517391         0.759479        -1.842149
 O        -3.027306         1.998111        -1.345725
 C        -3.659797         2.738448        -2.298786
 O        -3.665690         2.575180        -3.506184
 H         1.838234        -1.272702         1.673566
 H         2.309545         0.141189         0.560343
 H         1.559242         0.422650         2.143006
 H        -2.841786         0.366559         0.218503
 H        -4.121143        -1.097625        -1.081239
 H        -2.929183        -1.925290        -1.897015
 H        -2.982985        -2.193803        -0.170727
 H        -1.623723         1.071814        -2.394480
 H        -3.145710         0.526210        -2.626004
 H        -4.255480         3.623279        -1.886795
