19
Iteration:   333
 C         1.357086         0.281677        -0.407323
 C        -0.099080         0.357549        -0.370597
 C        -1.300579         0.005850        -0.250998
 C        -2.780355        -0.163725         0.017770
 C        -3.246473        -1.599600         0.119739
 C        -3.465830         0.567470        -1.173781
 O        -3.086041         2.060133        -1.150486
 C        -2.745165         2.482567        -2.357070
 O        -2.384027         1.803997        -3.321511
 H         1.550737        -0.142168         0.759781
 H         1.843895        -0.456052        -1.082555
 H         1.828824         1.299149        -0.503631
 H        -3.091003         0.344836         1.023081
 H        -2.957230        -2.017001         1.101423
 H        -4.344369        -1.665692        -0.071696
 H        -2.921886        -2.279991        -0.690502
 H        -3.142751         0.052017        -2.165439
 H        -4.552529         0.486253        -1.084127
 H        -2.522598         3.595800        -2.305023
