19
Iteration:  3237
 C         1.092223         0.591788         0.850402
 C        -0.174209         0.045124         0.335648
 C        -1.233762        -0.494937        -0.045762
 C        -2.657970        -0.432347        -0.529159
 C        -3.216407        -1.744460        -1.030188
 C        -2.693385         0.556978        -1.753549
 O        -2.194508         1.737531        -1.432295
 C        -2.933549         2.706177        -2.084073
 O        -3.652015         2.574810        -3.064535
 H         1.048344         1.452364         1.656626
 H         1.511669        -0.212380         1.354086
 H         1.719972         1.005941        -0.024385
 H        -3.255864         0.063245         0.255847
 H        -4.121575        -1.611275        -1.657901
 H        -2.609100        -2.420120        -1.683933
 H        -3.588113        -2.390367        -0.241580
 H        -2.095709         0.294396        -2.561405
 H        -3.778439         0.632946        -2.005012
 H        -2.685639         3.670336        -1.689889
