19
Iteration:   252
 C         1.128910         0.493482        -0.837871
 C        -0.208135         0.222996        -0.335434
 C        -1.355339         0.105314        -0.021912
 C        -2.765962        -0.139140         0.016482
 C        -3.269143        -1.606053         0.231725
 C        -3.574994         0.471949        -1.183727
 O        -3.415985         1.922630        -1.318370
 C        -2.388884         2.425140        -2.218656
 O        -1.899868         1.859370        -3.156591
 H         1.743022        -0.513027        -0.904192
 H         0.930505         1.017437        -1.744137
 H         1.694967         1.098021        -0.189132
 H        -3.132858         0.317484         1.023019
 H        -2.698387        -2.032873         1.036165
 H        -4.244066        -1.412341         0.619169
 H        -3.256584        -2.263093        -0.623064
 H        -3.214508         0.047197        -2.080960
 H        -4.643501         0.270490        -1.046492
 H        -2.110434         3.492247        -1.930291
