19
Iteration:  3424
 C         1.204301        -0.176628         1.138761
 C        -0.149337        -0.010469         0.551103
 C        -1.270991        -0.138227         0.167033
 C        -2.590438        -0.291575        -0.469857
 C        -2.653740        -1.819775        -1.083376
 C        -2.825941         0.639480        -1.765158
 O        -2.394805         2.014316        -1.567584
 C        -3.013842         2.799797        -2.465727
 O        -4.017785         2.625825        -3.158435
 H         1.929450        -0.185838         0.180946
 H         1.571681         0.732232         1.503040
 H         1.580548        -1.099745         1.647482
 H        -3.424558         0.115802         0.208427
 H        -3.694991        -2.013427        -1.277312
 H        -2.093850        -1.716653        -1.980876
 H        -2.232616        -2.449668        -0.307021
 H        -2.388597         0.213463        -2.645294
 H        -3.903933         0.617607        -1.789792
 H        -2.373665         3.757704        -2.425045
