19
Iteration:   821
 C         1.472478        -0.138093         0.624163
 C         0.043737        -0.130927         0.419426
 C        -1.053425        -0.064834        -0.168265
 C        -2.520098        -0.001207        -0.393247
 C        -3.246863        -1.356614        -0.166152
 C        -2.562026         0.477780        -1.863018
 O        -2.178468         1.907268        -2.026345
 C        -3.186595         2.632635        -2.568946
 O        -4.365957         2.342994        -2.591855
 H         1.720733         0.989250         0.625081
 H         1.846932        -0.673268         1.492501
 H         1.921394        -0.610118        -0.282414
 H        -2.995636         0.724336         0.252212
 H        -3.639092        -1.476723         0.835474
 H        -4.045635        -1.351367        -0.901288
 H        -2.609881        -2.166568        -0.508757
 H        -1.723673         0.032075        -2.369080
 H        -3.484580         0.271002        -2.349445
 H        -2.874029         3.462821        -3.141172
