19
Iteration:  3814
 C         1.506639        -1.043197         0.764096
 C         0.253373        -0.341920         0.319354
 C        -0.873683         0.029559         0.015817
 C        -2.320048         0.262746        -0.205031
 C        -2.892889        -0.946678        -1.040607
 C        -2.441762         1.603377        -0.958033
 O        -3.862259         1.773504        -1.459557
 C        -3.935680         2.196119        -2.743963
 O        -2.941006         2.180893        -3.440682
 H         2.194803        -0.268242         0.962293
 H         1.251824        -1.297447         1.865819
 H         1.827824        -1.908647         0.053246
 H        -2.832749         0.340349         0.821277
 H        -3.891679        -1.174391        -0.596320
 H        -3.168134        -0.719201        -2.055027
 H        -2.143605        -1.764699        -1.010914
 H        -2.520635         2.360450        -0.292072
 H        -1.650679         1.828935        -1.686369
 H        -4.997414         2.434162        -3.121528
