19
Iteration:  1874charge 0 multiplicity 1
 C         1.331366         0.195665         0.542252
 C        -0.043272        -0.023127         0.278791
 C        -1.223425         0.028780         0.078908
 C        -2.558099        -0.210846        -0.319478
 C        -2.958314        -1.710422        -0.691172
 C        -3.016588         0.476001        -1.542908
 O        -2.951498         1.914787        -1.281328
 C        -3.013184         2.740983        -2.345066
 O        -3.241482         2.310208        -3.471412
 H         1.417199         0.458881         1.666537
 H         2.061165        -0.647015         0.225929
 H         1.850706         1.053850         0.174362
 H        -3.201030         0.013004         0.541468
 H        -3.009149        -2.147148        -1.720727
 H        -2.263799        -2.424903        -0.159296
 H        -3.930208        -1.856248        -0.170774
 H        -2.408404         0.216923        -2.366528
 H        -4.071309         0.292651        -1.762270
 H        -2.798554         3.709582        -2.038528
