19
Iteration:   184
 C         1.045894         0.585413        -1.008638
 C        -0.314433         0.318787        -0.572028
 C        -1.383514         0.036310         0.030406
 C        -2.913438        -0.162797         0.061742
 C        -3.245651        -1.638374         0.349211
 C        -3.589384         0.507144        -1.239586
 O        -3.381501         1.963700        -1.427533
 C        -2.381012         2.412805        -2.160795
 O        -1.665489         1.748050        -2.889340
 H         1.299240        -0.026084        -1.848654
 H         1.093082         1.692268        -1.139041
 H         1.815454         0.133354        -0.332173
 H        -3.323858         0.382787         0.960928
 H        -2.562434        -1.818761         1.179993
 H        -4.254568        -1.692309         0.777992
 H        -3.086655        -2.405888        -0.410853
 H        -3.080671        -0.070244        -2.032661
 H        -4.654698         0.376054        -1.279502
 H        -2.297829         3.545465        -1.957752
