19
Iteration:  4996
 C         1.304306         0.069729         0.956426
 C        -0.106737        -0.161995         0.587481
 C        -1.102532        -0.246388        -0.067943
 C        -2.401630        -0.088577        -0.609587
 C        -3.292197        -1.434759        -0.800689
 C        -2.116858         0.595141        -2.029321
 O        -3.359469         1.175834        -2.725717
 C        -3.604322         2.427673        -2.324734
 O        -2.961978         3.238024        -1.720243
 H         1.805995        -0.822154         0.670781
 H         1.654417         0.982866         0.329604
 H         1.469662         0.290521         2.013982
 H        -2.973806         0.664086        -0.119177
 H        -4.253466        -1.159677        -1.101319
 H        -2.797188        -2.109314        -1.512332
 H        -3.227330        -1.958475         0.156086
 H        -1.401222         1.325689        -2.003792
 H        -1.959799        -0.248331        -2.662566
 H        -4.556456         2.712772        -2.798724
