19
Iteration:   901charge 0 multiplicity 1
 C         1.323889        -0.010193         0.717526
 C        -0.001010        -0.165862         0.297372
 C        -1.117728         0.015640        -0.112311
 C        -2.515070         0.034500        -0.522213
 C        -3.157000        -1.270731        -0.193965
 C        -2.486787         0.248911        -2.119434
 O        -2.157133         1.689834        -2.287082
 C        -3.153858         2.638198        -2.309647
 O        -4.343230         2.488031        -2.314101
 H         2.065690         0.258214        -0.058304
 H         1.216619         0.910272         1.356217
 H         1.690425        -0.877328         1.496646
 H        -3.121509         0.815507         0.007817
 H        -2.725277        -1.881194         0.583486
 H        -4.217496        -1.172737         0.009952
 H        -3.083738        -1.957775        -1.012868
 H        -1.652296        -0.204390        -2.686005
 H        -3.433355         0.014788        -2.694770
 H        -2.669294         3.590637        -2.110198
