19
Iteration:   498charge 0 multiplicity 1
 C         1.504159         0.045112         0.015937
 C         0.042762        -0.063397         0.142530
 C        -1.168386        -0.056791        -0.037567
 C        -2.602123        -0.090091        -0.090966
 C        -3.183508        -1.564914         0.044225
 C        -3.072370         0.542866        -1.392220
 O        -2.817834         1.949482        -1.330067
 C        -2.944540         2.647907        -2.519746
 O        -3.392337         2.229826        -3.541202
 H         1.509560         0.989280        -0.685606
 H         2.140329         0.362606         0.887375
 H         1.903030        -0.774279        -0.472857
 H        -3.006244         0.487328         0.817252
 H        -3.288392        -1.648720         1.110729
 H        -4.089031        -1.756681        -0.548806
 H        -2.500805        -2.289528        -0.369391
 H        -2.494777         0.180535        -2.258481
 H        -4.122219         0.467289        -1.697558
 H        -2.817229         3.810011        -2.427932
