19
Iteration:  4480charge 0 multiplicity 1
 C         1.408413        -0.401740         1.173434
 C         0.149761        -0.310705         0.363441
 C        -0.908986        -0.250971        -0.164280
 C        -2.306697        -0.164052        -0.454173
 C        -3.001291        -1.335381        -1.042136
 C        -2.311610         1.277532        -1.276183
 O        -3.727356         1.613022        -1.551640
 C        -3.882918         2.399231        -2.560777
 O        -2.978929         2.760545        -3.287220
 H         1.996786        -1.317663         0.703819
 H         2.187571         0.390158         0.823557
 H         1.253934        -0.495807         2.212400
 H        -2.710805         0.017585         0.523201
 H        -3.644746        -0.915859        -1.847382
 H        -2.224507        -2.155025        -1.461481
 H        -3.801180        -1.798842        -0.384349
 H        -2.025554         1.974789        -0.456214
 H        -1.838585         1.150203        -2.177377
 H        -4.883940         2.835381        -2.631805
