19
Iteration:  4078
 C         1.496002        -0.712762         0.951313
 C         0.059979        -0.585889         0.600506
 C        -1.002765        -0.239679         0.155481
 C        -2.223589         0.196872        -0.377572
 C        -2.894953        -0.822296        -1.331380
 C        -2.118251         1.563058        -1.154955
 O        -3.458581         2.125818        -1.308295
 C        -4.032426         2.101189        -2.573682
 O        -3.401091         1.968236        -3.610912
 H         1.708680        -1.658524         1.280362
 H         2.106529        -0.547471         0.026047
 H         1.821699         0.023998         1.802596
 H        -2.920175         0.407008         0.430433
 H        -2.837534        -1.882014        -1.184942
 H        -4.018211        -0.723239        -1.310210
 H        -2.473240        -0.748226        -2.325683
 H        -1.682708         2.247028        -0.377235
 H        -1.481270         1.485855        -2.012458
 H        -5.116433         2.102403        -2.494436
