19
Iteration:   267charge 0 multiplicity 1
 C         1.170047         0.512310        -0.788107
 C        -0.150445         0.098558        -0.266567
 C        -1.339473        -0.042119        -0.063807
 C        -2.827273        -0.112609         0.077499
 C        -3.236276        -1.606933         0.218859
 C        -3.478993         0.590653        -1.122639
 O        -3.435167         2.018865        -1.426704
 C        -2.454964         2.396080        -2.209110
 O        -2.015044         1.867502        -3.195603
 H         1.962353        -0.290424        -0.797611
 H         1.306348         0.770795        -1.843783
 H         1.479104         1.344000        -0.159311
 H        -3.173164         0.459044         0.983721
 H        -2.769906        -1.986743         1.161867
 H        -4.305996        -1.857867         0.258382
 H        -2.818763        -2.253203        -0.595964
 H        -3.201054         0.023373        -2.070978
 H        -4.563500         0.466073        -0.997234
 H        -2.098850         3.331253        -1.769973
