19
Iteration:  1313charge 0 multiplicity 1
 C         1.009081         0.707761         0.679609
 C        -0.343535         0.389628         0.207106
 C        -1.417672        -0.070799        -0.230360
 C        -2.775107        -0.292476        -0.682717
 C        -3.129236        -1.796480        -0.663689
 C        -2.812099         0.112102        -2.231189
 O        -2.127172         1.353261        -2.588421
 C        -2.566185         2.587867        -1.993599
 O        -3.605862         2.746938        -1.375204
 H         1.752718         0.023925         0.238151
 H         1.114602         1.723318         0.340097
 H         0.947633         0.821434         1.788703
 H        -3.528568         0.306710        -0.097834
 H        -4.076098        -2.010828        -1.224683
 H        -2.396266        -2.417002        -1.301674
 H        -3.190351        -2.315779         0.326626
 H        -2.186525        -0.650805        -2.688510
 H        -3.806009         0.073429        -2.658498
 H        -1.692985         3.421067        -1.941015
