19
Iteration:  4819
 C         1.257515        -0.476426         1.105450
 C         0.052393         0.090579         0.369651
 C        -1.073789         0.182020         0.002055
 C        -2.419012         0.195900        -0.652757
 C        -3.053459        -1.223009        -0.599095
 C        -2.141091         0.569974        -2.066509
 O        -3.430248         1.001899        -2.775761
 C        -3.626341         2.396717        -2.536111
 O        -3.130331         3.067683        -1.683175
 H         2.188149         0.155903         1.145059
 H         0.876707        -0.481211         2.170682
 H         1.492898        -1.457370         0.771602
 H        -3.179860         0.868469        -0.159818
 H        -4.143332        -1.237087        -0.993820
 H        -2.556143        -2.046331        -1.083632
 H        -3.234672        -1.442215         0.468041
 H        -1.506571         1.460146        -2.220695
 H        -1.648993        -0.235668        -2.658402
 H        -4.499223         2.707242        -3.200575
