19
Iteration:  2590charge 0 multiplicity 1
 C         1.233638         0.517246         0.453887
 C        -0.150715         0.085718         0.193694
 C        -1.332791        -0.299311        -0.024235
 C        -2.683574        -0.475061        -0.473306
 C        -3.097561        -1.967443        -0.697750
 C        -2.946925         0.472585        -1.618125
 O        -3.078621         1.835535        -1.141270
 C        -3.018845         2.751997        -2.133756
 O        -2.685995         2.658135        -3.300841
 H         2.096978        -0.205594         0.708920
 H         1.706842         1.030765        -0.545139
 H         1.182253         1.339445         1.165056
 H        -3.314640        -0.118621         0.390643
 H        -3.890534        -2.158564        -1.442532
 H        -2.294658        -2.577696        -1.134002
 H        -3.505737        -2.382771         0.204434
 H        -2.072720         0.411166        -2.353872
 H        -3.801516         0.198353        -2.255397
 H        -3.119368         3.769423        -1.692887
