19
Iteration:   511charge 0 multiplicity 1
 C         1.426436         0.059940        -0.029436
 C         0.058664        -0.050801         0.233708
 C        -1.155415        -0.036252         0.019588
 C        -2.574595        -0.207161        -0.174086
 C        -3.143804        -1.582322         0.113151
 C        -3.023492         0.558737        -1.474633
 O        -2.753187         2.017128        -1.357991
 C        -3.041887         2.676020        -2.488330
 O        -3.443481         2.261168        -3.590392
 H         1.766974         0.674336        -0.847114
 H         1.875560         0.241667         0.950027
 H         1.909168        -0.932248        -0.165307
 H        -3.070727         0.518681         0.614532
 H        -3.283480        -1.940895         1.132066
 H        -4.177605        -1.509686        -0.252227
 H        -2.575041        -2.398801        -0.337865
 H        -2.502695         0.144042        -2.279777
 H        -4.088457         0.309160        -1.479025
 H        -2.475325         3.657109        -2.206586
