19
Iteration:  4960charge 0 multiplicity 1
 C         1.161979         0.208070         1.137086
 C         0.061717        -0.139867         0.307281
 C        -1.085548        -0.380012        -0.124448
 C        -2.358589        -0.065625        -0.756005
 C        -3.450312        -1.224480        -0.747071
 C        -2.027628         0.586921        -2.143254
 O        -3.409337         1.058755        -2.648455
 C        -3.590446         2.368170        -2.279595
 O        -2.894634         3.123546        -1.612742
 H         2.076930        -0.319401         0.706854
 H         1.430659         1.244313         0.944973
 H         1.181136        -0.048334         2.178541
 H        -2.665761         0.645142        -0.054426
 H        -4.466961        -0.752874        -0.568392
 H        -3.574756        -1.757014        -1.624484
 H        -3.366863        -1.926912         0.060414
 H        -1.269830         1.428602        -2.177389
 H        -1.715844        -0.134625        -2.921308
 H        -4.516375         2.682576        -2.720006
