19
Iteration:   404charge 0 multiplicity 1
 C         1.415054         0.174730        -0.157224
 C        -0.027872        -0.006154        -0.020214
 C        -1.247867         0.120948        -0.150604
 C        -2.620567        -0.120893        -0.101489
 C        -3.088481        -1.562750         0.005482
 C        -3.500695         0.611348        -1.184764
 O        -3.021450         1.991078        -1.229781
 C        -2.713420         2.538873        -2.461491
 O        -2.877514         1.992488        -3.516125
 H         1.712873         0.811083         0.612564
 H         2.010123        -0.760995         0.095446
 H         1.629569         0.599135        -1.241565
 H        -2.895348         0.384992         0.778391
 H        -2.254425        -2.148430         0.446971
 H        -4.020467        -1.648961         0.606500
 H        -3.404130        -1.985820        -0.968127
 H        -3.535568         0.188928        -2.166842
 H        -4.564535         0.605723        -0.779553
 H        -2.095881         3.369117        -2.248541
