19
Iteration:  3848
 C         1.427966        -0.893317         0.553420
 C         0.129350        -0.375184         0.360944
 C        -1.000096         0.007195         0.272373
 C        -2.353142         0.142625        -0.093406
 C        -2.734623        -1.018132        -1.108614
 C        -2.406628         1.545157        -0.840499
 O        -3.818163         1.930359        -1.418908
 C        -3.872545         2.235116        -2.772183
 O        -2.970321         2.131048        -3.607680
 H         2.193540        -0.300033         0.146525
 H         1.630111        -1.043277         1.656014
 H         1.794319        -1.938550         0.231047
 H        -3.084520         0.199869         0.783002
 H        -3.844579        -0.972386        -1.207607
 H        -2.156802        -0.866158        -2.024812
 H        -2.548015        -1.959776        -0.621895
 H        -2.249126         2.206817        -0.087804
 H        -1.675509         1.686385        -1.633768
 H        -4.965351         2.508543        -2.921051
