19
Iteration:  2008
 C         1.128750         0.703361         0.191173
 C        -0.196978         0.260063         0.013317
 C        -1.325930        -0.158120        -0.133095
 C        -2.830923        -0.497288        -0.375715
 C        -2.999909        -2.041553        -0.368222
 C        -3.292529         0.410496        -1.554484
 O        -3.226244         1.858655        -1.239659
 C        -2.724905         2.717051        -2.138219
 O        -2.306597         2.419271        -3.245772
 H         1.418040         1.636074        -0.353010
 H         1.081791         0.959540         1.282479
 H         1.812353        -0.136027        -0.142090
 H        -3.346401        -0.148312         0.534727
 H        -2.560492        -2.511257         0.565939
 H        -4.084961        -2.282991        -0.344713
 H        -2.443072        -2.419668        -1.262814
 H        -2.563752         0.131858        -2.361174
 H        -4.294771         0.198082        -1.839268
 H        -2.783688         3.629710        -1.564896
