19
Iteration:  2873charge 0 multiplicity 1
 C         1.389615        -0.183271         0.905594
 C        -0.072948        -0.011479         0.526233
 C        -1.233645        -0.075080         0.131478
 C        -2.558719        -0.268616        -0.456300
 C        -2.799214        -1.779964        -0.806481
 C        -2.726409         0.540528        -1.824494
 O        -2.916171         1.912609        -1.366274
 C        -3.161332         2.870555        -2.332764
 O        -3.606453         2.702202        -3.455290
 H         1.996172         0.521394         0.304631
 H         1.450420         0.135250         1.883140
 H         1.668335        -1.277815         0.788546
 H        -3.373666        -0.059042         0.258972
 H        -3.881553        -1.885395        -1.200120
 H        -2.067040        -2.009805        -1.618708
 H        -2.683738        -2.449651         0.085496
 H        -1.787207         0.468342        -2.451693
 H        -3.455297         0.059770        -2.428000
 H        -2.786842         3.797245        -1.830993
