19
Iteration:  1714charge 0 multiplicity 1
 C         1.454722        -0.087772         0.902427
 C         0.088101        -0.128734         0.344008
 C        -1.100066        -0.122562         0.106700
 C        -2.416959        -0.175598        -0.385737
 C        -2.927394        -1.587088        -0.414244
 C        -2.665990         0.560196        -1.798160
 O        -2.522932         1.975710        -1.689850
 C        -3.376800         2.712772        -2.400595
 O        -4.103070         2.496812        -3.366398
 H         1.832524        -0.935283         0.382032
 H         1.978044         0.841830         0.750545
 H         1.447378        -0.482007         2.011500
 H        -3.025500         0.491727         0.196131
 H        -3.832998        -1.536269        -1.036159
 H        -2.114063        -2.031015        -1.061025
 H        -3.211498        -1.994567         0.566128
 H        -1.977775         0.207230        -2.627792
 H        -3.723039         0.294448        -2.041677
 H        -3.253430         3.766906        -2.139092
