19
Iteration:  3202
 C         1.135785         0.467346         0.724362
 C        -0.233454        -0.009455         0.512160
 C        -1.309780        -0.379892         0.132610
 C        -2.648580        -0.501893        -0.500651
 C        -3.088134        -1.954359        -1.067308
 C        -2.713228         0.572242        -1.707359
 O        -2.355372         1.902216        -1.385379
 C        -2.807501         2.854053        -2.296917
 O        -3.718758         2.613236        -3.060983
 H         1.404012         0.944966         1.741794
 H         1.809073        -0.358248         0.656894
 H         1.621803         1.131547        -0.088629
 H        -3.539988        -0.192417         0.089096
 H        -3.984710        -1.690531        -1.596762
 H        -2.269582        -2.382494        -1.664948
 H        -3.310972        -2.549833        -0.197113
 H        -2.008724         0.223043        -2.468558
 H        -3.633399         0.527258        -2.288480
 H        -2.142323         3.755983        -2.220381
