19
Iteration:  4944charge 0 multiplicity 1
 C         1.236939         0.225094         1.196857
 C         0.175433        -0.199140         0.231221
 C        -1.032501        -0.257275        -0.122158
 C        -2.333052        -0.138913        -0.779728
 C        -3.549448        -1.116841        -0.758062
 C        -2.162255         0.522517        -2.200730
 O        -3.359089         1.070686        -2.627769
 C        -3.618847         2.384222        -2.309287
 O        -2.877309         3.020553        -1.563483
 H         2.275854        -0.034453         1.017953
 H         1.076262         1.274498         1.447097
 H         0.788885        -0.192247         2.145189
 H        -2.800837         0.859957        -0.377008
 H        -4.469662        -0.566874        -0.623992
 H        -3.547757        -1.756360        -1.752331
 H        -3.459833        -1.815838         0.128383
 H        -1.493772         1.382006        -1.978640
 H        -1.729464        -0.140212        -2.984406
 H        -4.660686         2.704183        -2.688570
