19
Iteration:  1699charge 0 multiplicity 1
 C         1.446981        -0.134531         0.866902
 C         0.111159        -0.194102         0.374405
 C        -1.062321        -0.039840         0.105627
 C        -2.473914        -0.025479        -0.366178
 C        -3.000455        -1.552904        -0.527774
 C        -2.596369         0.462351        -1.778698
 O        -2.493901         1.937238        -1.725199
 C        -3.365118         2.773184        -2.400078
 O        -4.139698         2.428181        -3.298132
 H         2.346401        -0.496981         0.342971
 H         1.763329         0.950179         0.947263
 H         1.468569        -0.302364         1.880056
 H        -3.177055         0.526986         0.355864
 H        -3.674006        -1.827908        -1.361157
 H        -2.190235        -2.258371        -0.537885
 H        -3.631470        -1.850301         0.334341
 H        -1.847522         0.043547        -2.403836
 H        -3.549296         0.275942        -2.254712
 H        -3.320298         3.862614        -1.869225
