19
Iteration:   570
 C         1.450432        -0.089507         0.271441
 C         0.055718        -0.084712         0.003011
 C        -1.129693         0.163737         0.101906
 C        -2.521224        -0.087307        -0.110847
 C        -3.143818        -1.512876        -0.026359
 C        -2.906687         0.427756        -1.467503
 O        -2.579823         1.825648        -1.543796
 C        -3.067950         2.652026        -2.477957
 O        -3.747759         2.402040        -3.461442
 H         1.946775        -0.200035        -0.592820
 H         1.712742         0.940219         0.460957
 H         1.789224        -0.922317         1.087200
 H        -3.128936         0.527692         0.569224
 H        -2.635842        -2.044079         0.812223
 H        -4.227761        -1.334859         0.105586
 H        -3.175158        -1.971056        -1.051976
 H        -2.242726        -0.069614        -2.265382
 H        -3.928660         0.296086        -1.891808
 H        -2.927651         3.737458        -2.318915
