19
Iteration:  2082charge 0 multiplicity 1
 C         1.205309         0.843329         0.050025
 C        -0.227442         0.416871        -0.012875
 C        -1.326495        -0.006789        -0.262349
 C        -2.716756        -0.376432        -0.334505
 C        -3.002437        -1.915317        -0.746320
 C        -3.583160         0.455221        -1.430653
 O        -3.627271         1.925895        -1.299968
 C        -2.569538         2.482601        -1.980313
 O        -1.926462         1.944124        -2.863984
 H         1.854759         0.538444        -0.837063
 H         1.194507         1.937003         0.409263
 H         1.611824         0.351176         0.865129
 H        -3.072660        -0.246935         0.681648
 H        -2.069686        -2.421711        -1.144351
 H        -3.354227        -2.332387         0.206542
 H        -3.749428        -2.034261        -1.553072
 H        -3.177516         0.181452        -2.446601
 H        -4.598260         0.057142        -1.239944
 H        -2.333654         3.478686        -1.337914
