19
Iteration:   553
 C         1.506295        -0.051420         0.137701
 C         0.025809        -0.023992         0.128057
 C        -1.210234         0.005392         0.091784
 C        -2.622587        -0.027417        -0.052219
 C        -3.122816        -1.500061         0.000245
 C        -2.883738         0.382733        -1.516297
 O        -2.624382         1.842754        -1.496339
 C        -3.107724         2.672641        -2.472717
 O        -3.639971         2.403398        -3.528365
 H         2.176032        -0.052589        -0.915937
 H         1.847311         0.848894         0.734217
 H         1.688873        -0.968501         0.562949
 H        -3.138358         0.626942         0.702743
 H        -2.602711        -2.118818         0.726973
 H        -4.175012        -1.526666         0.321660
 H        -2.823591        -1.978098        -0.919238
 H        -2.289747        -0.077443        -2.299083
 H        -3.959283         0.296146        -1.808998
 H        -2.736627         3.750480        -2.154407
