19
Iteration:  1003charge 0 multiplicity 1
 C         1.328111         0.088982         0.886107
 C        -0.082139         0.028153         0.379807
 C        -1.218766         0.137688        -0.117933
 C        -2.543620        -0.109866        -0.605252
 C        -2.984909        -1.545441        -0.348429
 C        -2.773389         0.249974        -2.158924
 O        -2.327329         1.554148        -2.742425
 C        -3.026621         2.591208        -2.424511
 O        -4.019570         2.717990        -1.713372
 H         1.782007        -0.815895         1.333410
 H         2.002305         0.627744         0.156986
 H         1.220075         0.891496         1.842746
 H        -3.181290         0.477274         0.114154
 H        -3.871510        -1.597266         0.257253
 H        -3.415776        -1.964520        -1.271804
 H        -2.239074        -2.309693        -0.046146
 H        -2.095380        -0.333624        -2.806554
 H        -3.805550         0.159352        -2.486433
 H        -2.453035         3.457702        -2.764152
