19
Iteration:    59
 C         1.262269         0.452688        -0.703491
 C        -0.198015         0.230354        -0.353235
 C        -1.393076         0.273003        -0.152183
 C        -2.862420        -0.025918         0.046632
 C        -3.147429        -1.518860         0.251843
 C        -3.707876         0.328666        -1.201014
 O        -3.302479         1.944717        -1.287689
 C        -2.504529         2.324297        -2.268274
 O        -1.935725         1.784966        -3.172364
 H         1.533649         1.395045        -0.930556
 H         1.882107         0.090920         0.282858
 H         1.503421        -0.242643        -1.648388
 H        -3.268551         0.549337         0.844264
 H        -2.387614        -2.104853         0.815360
 H        -4.122789        -1.603188         0.807666
 H        -3.241520        -1.985723        -0.764201
 H        -3.439001        -0.180219        -2.132580
 H        -4.801616         0.366784        -0.895902
 H        -2.421985         3.487626        -2.093673
