19
Iteration:  2931
 C         1.332766        -0.238251         0.850640
 C        -0.079114        -0.222330         0.507838
 C        -1.274409        -0.150090         0.200864
 C        -2.494640        -0.220525        -0.549409
 C        -2.775906        -1.787507        -0.668988
 C        -2.481721         0.661421        -1.808667
 O        -2.877629         2.046647        -1.440611
 C        -3.625111         2.825012        -2.293025
 O        -3.434210         2.719468        -3.477479
 H         1.850965        -0.386351        -0.159197
 H         1.901377         0.643082         1.264182
 H         1.780874        -1.097817         1.387029
 H        -3.336599         0.062120         0.118374
 H        -3.468217        -1.950374        -1.477412
 H        -1.821574        -2.362754        -0.824135
 H        -3.114115        -2.052163         0.378419
 H        -1.538230         0.864301        -2.303620
 H        -3.388612         0.207561        -2.344468
 H        -4.326123         3.651403        -1.859497
