19
Iteration:   305
 C         1.272642         0.414813        -0.540903
 C        -0.120016         0.058617        -0.345427
 C        -1.323922         0.098326        -0.161532
 C        -2.788302        -0.087027        -0.054365
 C        -3.264505        -1.558572         0.141383
 C        -3.457907         0.603256        -1.172365
 O        -3.204545         1.946707        -1.178812
 C        -2.646842         2.418883        -2.313568
 O        -2.197743         1.818050        -3.232736
 H         1.903487        -0.143711         0.138011
 H         1.468887         0.244363        -1.624350
 H         1.435037         1.531306        -0.372222
 H        -3.128078         0.416714         0.823403
 H        -3.096510        -1.679748         1.206131
 H        -4.288680        -1.819800        -0.226096
 H        -2.563337        -2.218356        -0.381454
 H        -3.350482         0.187277        -2.139893
 H        -4.528800         0.533697        -0.837520
 H        -2.658911         3.546076        -2.272084
