19
Iteration:  1945charge 0 multiplicity 1
 C         1.294998         0.511174         0.303594
 C        -0.125732         0.155384         0.260123
 C        -1.291234        -0.098823         0.027475
 C        -2.790909        -0.366513        -0.312881
 C        -3.092148        -1.913886        -0.457740
 C        -3.072012         0.362938        -1.609208
 O        -3.045742         1.745247        -1.265744
 C        -2.865062         2.722731        -2.217327
 O        -2.786293         2.553787        -3.422198
 H         1.526330         1.494680         0.595967
 H         1.847024        -0.208979         0.850310
 H         1.960122         0.421596        -0.672060
 H        -3.568611         0.031239         0.414169
 H        -4.015439        -2.313855        -0.041734
 H        -3.024090        -2.201346        -1.495774
 H        -2.286138        -2.486275         0.060900
 H        -2.253061         0.229734        -2.383758
 H        -4.052095         0.194524        -2.065065
 H        -2.728486         3.810948        -1.814475
