19
Iteration:   744
 C         1.477036        -0.332381         0.622670
 C         0.093265         0.064589         0.414894
 C        -1.036868         0.115282        -0.057538
 C        -2.426834         0.048551        -0.401665
 C        -3.061378        -1.382179        -0.091473
 C        -2.761125         0.338976        -1.909829
 O        -2.338584         1.774733        -1.914011
 C        -3.232447         2.696760        -2.423590
 O        -4.277821         2.448102        -2.993712
 H         1.908653        -0.544668         1.659475
 H         1.521833        -1.276653         0.072158
 H         2.036805         0.500576         0.092209
 H        -2.959436         0.746094         0.265623
 H        -2.680368        -1.817374         0.825916
 H        -4.088568        -1.157780         0.037440
 H        -2.774137        -2.096159        -0.864030
 H        -2.182803        -0.231401        -2.615540
 H        -3.816545         0.232882        -2.077097
 H        -2.950845         3.721982        -2.358824
