19
Iteration:  2989
 C         1.427963        -0.224226         1.022705
 C         0.091164        -0.187347         0.457443
 C        -1.074932        -0.222355         0.091666
 C        -2.371542        -0.212108        -0.505080
 C        -2.965765        -1.518415        -0.980948
 C        -2.642477         0.745391        -1.712514
 O        -3.189321         1.996555        -1.232198
 C        -3.343313         2.831326        -2.342959
 O        -3.481702         2.426552        -3.487654
 H         1.946635        -1.075891         0.565098
 H         2.131094         0.773515         0.934132
 H         1.322958        -0.457690         2.072361
 H        -3.085323         0.270061         0.233369
 H        -4.030834        -1.529903        -0.901328
 H        -2.680485        -1.760228        -1.982161
 H        -2.730864        -2.378331        -0.441265
 H        -1.837700         0.979941        -2.417640
 H        -3.258131         0.227379        -2.468934
 H        -3.723367         3.869351        -2.070905
