19
Iteration:  2962charge 0 multiplicity 1
 C         1.410163        -0.258013         0.948291
 C         0.009024        -0.110229         0.412664
 C        -1.153577        -0.102222         0.094933
 C        -2.541513        -0.194452        -0.478106
 C        -2.909408        -1.618765        -0.868080
 C        -2.482309         0.677281        -1.690833
 O        -3.048833         1.933009        -1.314238
 C        -3.442244         2.807937        -2.308663
 O        -3.490778         2.566202        -3.487208
 H         1.924971        -0.902740         0.167804
 H         2.029303         0.551043         1.179908
 H         1.565787        -0.899364         1.872632
 H        -3.323283         0.285056         0.169985
 H        -3.935148        -1.770542        -1.330597
 H        -2.190203        -2.085489        -1.608063
 H        -2.966745        -2.298599         0.063321
 H        -1.508122         0.949236        -2.156557
 H        -3.004269         0.223314        -2.563283
 H        -3.872087         3.786106        -1.929269
