19
Iteration:  4549
 C         1.483225        -0.719465         0.848043
 C         0.103583        -0.367471         0.631500
 C        -1.063844        -0.075318         0.347450
 C        -2.376672         0.074027        -0.302721
 C        -2.714346        -1.214515        -0.993144
 C        -2.337283         1.253194        -1.331035
 O        -3.667412         1.295765        -1.815526
 C        -3.894715         2.380500        -2.682766
 O        -3.121174         3.096128        -3.261748
 H         1.374392        -1.749777         1.093336
 H         2.108795        -0.691868        -0.106724
 H         2.077690        -0.257642         1.689950
 H        -3.208917         0.205518         0.393705
 H        -3.792158        -1.527222        -1.062693
 H        -2.371342        -1.222250        -1.981472
 H        -2.357099        -2.178937        -0.603709
 H        -2.129053         2.240301        -0.968530
 H        -1.717627         0.876080        -2.193144
 H        -5.004161         2.305204        -2.867822
