19
Iteration:  1758charge 0 multiplicity 1
 C         1.397742        -0.167664         0.894759
 C         0.052099        -0.017585         0.421468
 C        -1.019828         0.071202        -0.141708
 C        -2.436168        -0.204445        -0.438830
 C        -2.842904        -1.653950        -0.454419
 C        -2.854769         0.578886        -1.737667
 O        -2.725320         1.951121        -1.455618
 C        -3.191683         2.748676        -2.480631
 O        -3.945570         2.432166        -3.425557
 H         1.651933        -1.191380         0.975162
 H         1.908615         0.441999         0.192033
 H         1.535819         0.193130         1.998509
 H        -2.998015         0.122540         0.431430
 H        -3.551389        -1.695527         0.381601
 H        -3.383927        -2.059634        -1.347248
 H        -1.993563        -2.336016        -0.228292
 H        -2.209352         0.200363        -2.600358
 H        -3.931958         0.391342        -1.943962
 H        -2.778382         3.781191        -2.164578
