19
Iteration:  1527
 C         1.283367        -0.021371         1.022738
 C        -0.069387         0.172672         0.466384
 C        -1.144582         0.015653        -0.096602
 C        -2.461452        -0.021706        -0.706745
 C        -3.070556        -1.470629        -0.531487
 C        -2.492992         0.334131        -2.194818
 O        -2.168344         1.680484        -2.338278
 C        -3.152392         2.620494        -2.360537
 O        -4.365046         2.462195        -2.100618
 H         1.558506         0.787826         1.684248
 H         1.278201        -0.861987         1.744890
 H         2.174234        -0.137770         0.337912
 H        -3.024053         0.724166        -0.157541
 H        -4.081819        -1.698589        -0.905486
 H        -2.462370        -2.230122        -1.101812
 H        -2.935492        -1.667783         0.512928
 H        -1.768585        -0.188910        -2.834709
 H        -3.533796         0.093519        -2.536324
 H        -2.605662         3.580424        -2.540736
