19
Iteration:  1796
 C         1.433802        -0.099261         0.919645
 C         0.115870        -0.033812         0.246111
 C        -1.080138         0.029102        -0.030823
 C        -2.552076        -0.206570        -0.359940
 C        -2.802998        -1.683254        -0.569403
 C        -3.117037         0.597907        -1.557053
 O        -2.765567         1.962636        -1.470463
 C        -3.176951         2.788546        -2.450659
 O        -3.693009         2.380029        -3.499537
 H         1.775586        -1.046342         1.471374
 H         2.350610        -0.104766         0.233365
 H         1.529972         0.785471         1.505103
 H        -3.101599         0.123753         0.533175
 H        -2.368880        -2.167053         0.359284
 H        -3.837753        -2.063977        -0.654995
 H        -2.240241        -2.005533        -1.491079
 H        -2.544693         0.207692        -2.394676
 H        -4.174981         0.502161        -1.829245
 H        -3.124013         3.814120        -2.235610
