19
Iteration:  4866
 C         1.287329        -0.173187         1.229415
 C        -0.039332        -0.137797         0.521788
 C        -1.025445         0.149780        -0.129055
 C        -2.358451         0.049266        -0.893178
 C        -3.199004        -1.127499        -0.477258
 C        -2.231888         0.445996        -2.386034
 O        -3.383285         1.153235        -2.895908
 C        -3.679642         2.314637        -2.263056
 O        -2.984062         3.007107        -1.515259
 H         1.941242         0.225233         0.524681
 H         1.367143         0.443489         2.154641
 H         1.612883        -1.223286         1.312860
 H        -2.994283         0.946246        -0.591190
 H        -4.009153        -1.382139        -1.126577
 H        -2.550654        -2.084524        -0.556368
 H        -3.711720        -1.106895         0.508976
 H        -1.476419         1.123258        -2.540850
 H        -1.994696        -0.284763        -3.146291
 H        -4.571205         2.751308        -2.820639
