19
Iteration:  2458charge 0 multiplicity 1
 C         1.248688         0.085112         0.513540
 C        -0.124033         0.174738         0.113798
 C        -1.339022         0.311580        -0.027938
 C        -2.645752        -0.235258        -0.396593
 C        -2.650404        -1.732663        -0.842711
 C        -3.375756         0.449666        -1.516794
 O        -3.595889         1.842198        -1.266966
 C        -2.937391         2.679351        -2.216383
 O        -2.327986         2.268014        -3.178706
 H         2.087710         0.060779        -0.204467
 H         1.317201         0.774873         1.419163
 H         1.517681        -0.831144         0.964027
 H        -3.334988        -0.029406         0.460376
 H        -2.916713        -2.335502         0.060097
 H        -3.394776        -1.929755        -1.620488
 H        -1.770242        -1.905928        -1.472153
 H        -2.879356         0.219122        -2.478158
 H        -4.370136        -0.038941        -1.405636
 H        -2.804226         3.701307        -1.745320
