19
Iteration:   626
 C         1.527830        -0.103304         0.467554
 C         0.071754        -0.088235         0.375707
 C        -0.979413        -0.140813        -0.277243
 C        -2.425257        -0.087824        -0.296651
 C        -3.168267        -1.497702        -0.055601
 C        -2.930807         0.583315        -1.495301
 O        -2.464602         1.972573        -1.636378
 C        -3.099745         2.701883        -2.632849
 O        -4.064459         2.313459        -3.266422
 H         1.758776        -1.044460         0.143803
 H         2.049576         0.710527        -0.033547
 H         1.796572        -0.164213         1.628174
 H        -2.773802         0.583033         0.513708
 H        -3.247701        -1.757079         1.021968
 H        -4.242532        -1.386197        -0.356239
 H        -2.541752        -2.311657        -0.495636
 H        -2.820606         0.129831        -2.535317
 H        -4.010394         0.741508        -1.319802
 H        -2.678046         3.745098        -2.799392
