19
Iteration:  3591charge 0 multiplicity 1
 C         1.538789        -0.387397         1.125434
 C         0.041034        -0.403063         0.620946
 C        -1.005485        -0.250420        -0.052658
 C        -2.331907        -0.126113        -0.527315
 C        -2.955404        -1.485171        -0.911589
 C        -2.338149         0.844114        -1.697749
 O        -3.183642         2.100874        -1.368536
 C        -3.773764         2.766291        -2.387794
 O        -3.578052         2.503024        -3.534369
 H         1.663305        -1.242996         1.854070
 H         2.011760        -0.551163         0.142163
 H         1.710516         0.538991         1.638730
 H        -2.961209         0.266639         0.323871
 H        -4.025884        -1.459473        -0.710876
 H        -2.779252        -1.687484        -1.977952
 H        -2.560217        -2.234916        -0.269814
 H        -1.339181         1.338701        -1.649229
 H        -2.535989         0.431028        -2.630586
 H        -4.334278         3.676081        -1.947870
