19
Iteration:  1385charge 0 multiplicity 1
 C         1.003405         0.426366         0.999181
 C        -0.177847         0.196858         0.244911
 C        -1.268182         0.062260        -0.297234
 C        -2.584427        -0.097564        -0.766776
 C        -3.085059        -1.556869        -0.604966
 C        -2.722177         0.180179        -2.275362
 O        -2.268592         1.473357        -2.714142
 C        -2.856408         2.495845        -2.190757
 O        -3.716949         2.550898        -1.329627
 H         1.181387        -0.359871         1.718900
 H         1.882549         0.687810         0.394879
 H         0.629399         1.385919         1.430864
 H        -3.172815         0.577128        -0.164896
 H        -3.344592        -1.845611         0.415664
 H        -4.027872        -1.664876        -1.059958
 H        -2.447316        -2.287706        -1.034399
 H        -1.973094        -0.449411        -2.794908
 H        -3.748533        -0.050065        -2.685337
 H        -2.132634         3.359802        -2.451312
