19
Iteration:  2188
 C         0.975094         0.936499        -0.247739
 C        -0.405034         0.485776         0.045581
 C        -1.585124         0.088967        -0.003242
 C        -2.884822        -0.453159        -0.355163
 C        -2.903924        -1.933078        -0.818265
 C        -3.597000         0.400916        -1.510480
 O        -3.373186         1.814117        -1.242988
 C        -2.412699         2.469046        -1.904999
 O        -1.701999         1.964256        -2.708506
 H         1.728168         0.259588         0.145513
 H         1.232441         0.881672        -1.295486
 H         1.201970         2.021947         0.059556
 H        -3.600329        -0.307131         0.493495
 H        -3.680198        -1.911122        -1.591645
 H        -2.036523        -2.208579        -1.396286
 H        -3.122016        -2.655045        -0.058280
 H        -3.258094         0.136623        -2.505512
 H        -4.679547         0.189233        -1.414500
 H        -2.010270         3.418381        -1.284319
