19
Iteration:  2205charge 0 multiplicity 1
 C         0.923076         0.964230        -0.228019
 C        -0.378200         0.441576         0.093466
 C        -1.573266         0.107566        -0.072827
 C        -2.928390        -0.442366        -0.361346
 C        -3.037180        -1.930666        -0.824259
 C        -3.441976         0.374989        -1.517280
 O        -3.338387         1.772048        -1.161962
 C        -2.336079         2.441230        -1.840525
 O        -1.727905         2.036207        -2.810737
 H         1.711167         0.463043         0.385282
 H         1.074399         0.795106        -1.347977
 H         0.864325         2.030292        -0.228929
 H        -3.535800        -0.331833         0.537342
 H        -4.052438        -2.212325        -1.130417
 H        -2.283331        -2.142039        -1.632639
 H        -2.655128        -2.516712         0.061196
 H        -2.863438         0.172906        -2.431077
 H        -4.519855         0.157136        -1.658815
 H        -2.599919         3.393309        -1.583390
