19
Iteration:  4378
 C         1.395724        -0.237207         1.019302
 C        -0.018423        -0.473326         0.609527
 C        -1.159618        -0.439783         0.195988
 C        -2.411992        -0.158324        -0.511782
 C        -2.817639        -1.414956        -1.309707
 C        -2.101163         1.179509        -1.254019
 O        -3.372721         1.958948        -1.262442
 C        -3.810917         2.561655        -2.500547
 O        -3.335336         2.547448        -3.606424
 H         1.849188        -0.015857         0.046437
 H         1.443558         0.509313         1.751367
 H         2.021841        -1.148064         1.288986
 H        -3.234445         0.107616         0.121981
 H        -3.955221        -1.513936        -1.226048
 H        -2.740812        -1.378761        -2.389563
 H        -2.460950        -2.409936        -1.072777
 H        -1.361395         1.682163        -0.705069
 H        -1.689939         0.973797        -2.278729
 H        -4.692277         3.109798        -2.251557
