19
Iteration:   331
 C         1.367159         0.289868        -0.428492
 C        -0.089665         0.340378        -0.367100
 C        -1.311497         0.028347        -0.252983
 C        -2.784044        -0.165009         0.014202
 C        -3.247868        -1.613634         0.132001
 C        -3.485782         0.547581        -1.179929
 O        -3.074981         2.064338        -1.149840
 C        -2.752756         2.472795        -2.358298
 O        -2.366466         1.804295        -3.302017
 H         1.526392        -0.124532         0.800714
 H         1.844206        -0.372502        -1.156367
 H         1.752910         1.265052        -0.480925
 H        -3.116172         0.353560         1.041533
 H        -3.022972        -2.014033         1.129979
 H        -4.297836        -1.584147        -0.127224
 H        -2.931082        -2.283236        -0.677071
 H        -3.135370         0.093600        -2.151803
 H        -4.572124         0.530006        -1.143891
 H        -2.524491         3.656817        -2.354792
