19
Iteration:  3777charge 0 multiplicity 1
 C         1.525492        -1.012328         0.910286
 C         0.237100        -0.453141         0.440840
 C        -0.765216        -0.072032        -0.179213
 C        -2.256485         0.293826        -0.333973
 C        -3.085898        -0.846324        -0.975647
 C        -2.387918         1.684937        -0.959913
 O        -3.786932         1.740710        -1.446889
 C        -3.931635         1.974837        -2.743988
 O        -3.079505         2.391268        -3.490624
 H         2.126015        -0.151942         1.380828
 H         1.352612        -1.844639         1.616305
 H         2.334830        -1.387379         0.336734
 H        -2.682460         0.415562         0.670648
 H        -3.935515        -1.288041        -0.485146
 H        -3.328465        -0.482726        -2.015346
 H        -2.512940        -1.790490        -1.150191
 H        -2.156579         2.404304        -0.045347
 H        -1.691629         1.809949        -1.775300
 H        -4.904123         1.594675        -3.081644
