19
Iteration:  3956
 C         1.582573        -0.374150         0.681257
 C         0.072834        -0.438030         0.306440
 C        -1.158309        -0.447680         0.120141
 C        -2.512579         0.026895        -0.307409
 C        -3.108944        -1.002016        -1.311166
 C        -2.240865         1.505073        -0.842880
 O        -3.450290         2.209778        -1.257111
 C        -3.740415         2.272038        -2.606409
 O        -3.099128         1.792156        -3.477953
 H         2.274482        -0.624640        -0.048111
 H         1.792428         0.731508         0.946665
 H         1.643790        -1.112359         1.526843
 H        -3.175768         0.154515         0.581649
 H        -3.788532        -0.635961        -2.126260
 H        -2.424198        -1.480518        -2.000734
 H        -3.594396        -1.853092        -0.815665
 H        -1.890209         1.994507         0.017618
 H        -1.445581         1.521441        -1.661167
 H        -4.565712         2.977541        -2.771787
