19
Iteration:  3655
 C         1.471435        -0.697685         0.835895
 C         0.085973        -0.315423         0.550885
 C        -1.060324        -0.089226         0.212719
 C        -2.421525         0.057762        -0.355796
 C        -2.748169        -1.364495        -1.027459
 C        -2.271895         1.103993        -1.397606
 O        -3.426532         2.026587        -1.305669
 C        -3.859475         2.505117        -2.487909
 O        -3.418435         2.447814        -3.637269
 H         1.700645        -1.008421         1.953946
 H         1.778237        -1.551656         0.258199
 H         2.317985        -0.065653         0.767855
 H        -3.089585         0.411127         0.443814
 H        -3.280805        -1.218574        -1.965066
 H        -1.907038        -1.886215        -1.451860
 H        -3.339006        -2.008697        -0.417217
 H        -1.329789         1.777794        -1.430873
 H        -2.272575         0.553019        -2.384379
 H        -4.655792         3.246899        -2.290363
