19
Iteration:  3115
 C         1.195059        -0.173859         0.871517
 C        -0.140405         0.220837         0.480393
 C        -1.197689        -0.048339        -0.024101
 C        -2.587516        -0.348296        -0.605823
 C        -2.698676        -1.894412        -0.709689
 C        -2.878874         0.423580        -1.866182
 O        -2.721399         1.854203        -1.434299
 C        -3.086831         2.965082        -2.205343
 O        -3.576396         2.791289        -3.275653
 H         1.253745        -0.987142         1.698486
 H         1.712356        -0.583566         0.062947
 H         1.451451         0.897737         1.268034
 H        -3.318155        -0.108680         0.200668
 H        -3.542741        -2.395788        -1.226003
 H        -1.835398        -2.329282        -1.327682
 H        -2.522845        -2.446678         0.244495
 H        -2.184076         0.030930        -2.614810
 H        -3.941202         0.218758        -2.124410
 H        -2.794497         3.898288        -1.749152
