19
Iteration:  4695
 C         1.437783        -0.684715         1.086388
 C         0.262871        -0.354481         0.475806
 C        -0.880343        -0.333096        -0.004912
 C        -2.219851         0.146842        -0.302371
 C        -3.174821        -1.042472        -0.708079
 C        -2.169844         1.123209        -1.487560
 O        -3.293863         1.049604        -2.388074
 C        -3.937798         2.255938        -2.806605
 O        -3.539177         3.417176        -2.609908
 H         1.608815        -0.186745         2.092333
 H         1.508832        -1.720214         1.307770
 H         2.257236        -0.254448         0.420905
 H        -2.592861         0.659982         0.612944
 H        -3.712747        -0.850234        -1.570577
 H        -2.774303        -2.075933        -0.920610
 H        -3.889746        -1.316274         0.062484
 H        -2.086404         2.227742        -1.056215
 H        -1.283150         1.032030        -2.161875
 H        -4.756194         1.913064        -3.499158
