19
Iteration:  2983
 C         1.384413        -0.256158         0.952484
 C         0.085041        -0.135669         0.451817
 C        -1.092322        -0.194729         0.140560
 C        -2.373068        -0.179748        -0.491968
 C        -2.963631        -1.536996        -0.952353
 C        -2.602511         0.708490        -1.762450
 O        -3.180395         1.979339        -1.279338
 C        -3.369128         2.821452        -2.314033
 O        -3.481827         2.444056        -3.459351
 H         2.129636        -1.017339         0.628188
 H         1.903226         0.611693         1.083376
 H         1.391158        -0.473891         2.070352
 H        -2.967791         0.026299         0.414550
 H        -4.097553        -1.445152        -1.074751
 H        -2.603400        -1.711434        -2.005912
 H        -2.727013        -2.448959        -0.286860
 H        -1.669873         1.052524        -2.296428
 H        -3.258454         0.285915        -2.534153
 H        -3.562419         3.862668        -2.102080
