19
Iteration:  2261
 C         0.826401         1.087820         0.001308
 C        -0.325493         0.257592        -0.216236
 C        -1.472884        -0.214802        -0.124270
 C        -2.874253        -0.602528        -0.344677
 C        -3.242960        -2.069558        -0.519719
 C        -3.320020         0.345085        -1.518880
 O        -3.224719         1.805729        -1.177197
 C        -2.425531         2.569259        -1.986061
 O        -1.756486         2.426632        -2.985872
 H         1.209361         1.286388         1.111283
 H         1.776848         0.515981        -0.333050
 H         0.715027         2.081563        -0.513808
 H        -3.373003        -0.335590         0.587329
 H        -4.014656        -2.489323         0.172336
 H        -3.730142        -2.130056        -1.541484
 H        -2.325329        -2.716762        -0.350216
 H        -2.764508         0.100917        -2.380449
 H        -4.394235         0.128459        -1.762947
 H        -2.562565         3.590637        -1.500109
