19
Iteration:  1643
 C         1.407578        -0.038658         0.810901
 C         0.017355         0.034708         0.532485
 C        -1.087369        -0.219430         0.049881
 C        -2.447842        -0.117547        -0.505909
 C        -3.222329        -1.545381        -0.552645
 C        -2.469972         0.598076        -1.904160
 O        -2.296483         2.003862        -1.807067
 C        -3.285293         2.745142        -2.417057
 O        -4.247604         2.218767        -2.907336
 H         2.008063         0.000006        -0.145640
 H         1.851737         0.626849         1.605906
 H         1.544842        -1.043641         1.067974
 H        -3.041856         0.571486         0.196264
 H        -2.352871        -2.233249        -0.732259
 H        -3.417086        -1.642622         0.496559
 H        -4.004293        -1.618708        -1.309515
 H        -1.601992         0.197350        -2.395799
 H        -3.362908         0.416530        -2.469410
 H        -3.094445         3.911242        -2.677472
