19
Iteration:  1831
 C         1.435859         0.003643         0.748755
 C         0.003516         0.039371         0.388182
 C        -1.128489        -0.107022        -0.049675
 C        -2.537022        -0.299623        -0.323681
 C        -2.824297        -1.783486        -0.606881
 C        -3.099285         0.617514        -1.442493
 O        -2.861478         2.076922        -1.397181
 C        -3.108787         2.809110        -2.498195
 O        -3.521883         2.342536        -3.546262
 H         1.554963        -0.461515         1.784648
 H         1.962614        -0.345379        -0.182208
 H         1.776600         1.017857         0.831493
 H        -3.011694        -0.016328         0.654491
 H        -1.888467        -2.311537        -0.833974
 H        -3.445054        -2.264039         0.199438
 H        -3.355863        -1.909825        -1.553023
 H        -2.515672         0.331580        -2.282328
 H        -4.134369         0.321855        -1.609749
 H        -2.931857         3.812214        -2.149736
