19
Iteration:  1360
 C         1.030288         0.586166         0.884714
 C        -0.265402         0.199135         0.351504
 C        -1.303592         0.030254        -0.334910
 C        -2.694989        -0.195185        -0.814045
 C        -3.126668        -1.679040        -0.560817
 C        -2.854464         0.133068        -2.293023
 O        -2.089717         1.536351        -2.650547
 C        -2.791912         2.524853        -2.167658
 O        -3.628713         2.554983        -1.302588
 H         1.478452        -0.417197         1.206724
 H         1.690812         1.140886         0.128149
 H         0.812486         1.243899         1.664923
 H        -3.326987         0.536704        -0.321542
 H        -3.913081        -1.864693         0.167025
 H        -3.519631        -2.199880        -1.438126
 H        -2.196121        -2.227473        -0.267097
 H        -2.355191        -0.512108        -3.009496
 H        -3.887982         0.317032        -2.560770
 H        -2.410241         3.556032        -2.723813
