19
Iteration:  2430
 C         1.299698         0.214153         0.398962
 C        -0.212294         0.181252         0.312865
 C        -1.358428         0.125194        -0.035937
 C        -2.779607        -0.272188        -0.362224
 C        -2.633988        -1.721843        -0.813288
 C        -3.402284         0.481856        -1.527650
 O        -3.551645         1.861505        -1.330960
 C        -2.903296         2.726530        -2.228164
 O        -2.244151         2.244672        -3.129716
 H         1.848037         0.534067        -0.525314
 H         1.589342         0.543674         1.409040
 H         1.585017        -0.933229         0.243612
 H        -3.444579        -0.184207         0.497792
 H        -2.042996        -2.343555        -0.079774
 H        -3.659129        -2.170066        -0.925638
 H        -2.092715        -1.813983        -1.793915
 H        -2.869981         0.257524        -2.499171
 H        -4.406336         0.110611        -1.716058
 H        -3.103169         3.719698        -1.796854
