19
Iteration:  1007charge 0 multiplicity 1
 C         1.299251         0.122534         0.859205
 C        -0.134306         0.034691         0.419778
 C        -1.192112         0.102411        -0.152756
 C        -2.528933        -0.087162        -0.594549
 C        -2.984802        -1.586270        -0.319769
 C        -2.778631         0.252166        -2.181915
 O        -2.305609         1.556094        -2.753833
 C        -3.042713         2.638348        -2.445626
 O        -4.003747         2.710624        -1.675052
 H         1.683028        -0.782035         1.407639
 H         2.008075         0.540485         0.182917
 H         1.273146         0.784886         1.635756
 H        -3.264826         0.485155        -0.024839
 H        -3.874827        -1.611273         0.352973
 H        -3.301101        -2.015516        -1.316759
 H        -2.175674        -2.281277        -0.066156
 H        -2.092329        -0.426481        -2.681323
 H        -3.822890         0.119245        -2.435891
 H        -2.359935         3.436188        -2.836314
