19
Iteration:  1628
 C         1.463455        -0.061243         0.813774
 C         0.020456         0.023597         0.488367
 C        -1.130782        -0.103326         0.038266
 C        -2.517895        -0.058330        -0.489638
 C        -3.226708        -1.535043        -0.557667
 C        -2.383541         0.496028        -1.895677
 O        -2.229742         2.019722        -1.854089
 C        -3.260767         2.658565        -2.431288
 O        -4.338316         2.258359        -2.838228
 H         2.090548         0.445996         0.097737
 H         1.646463         0.491232         1.721905
 H         1.882510        -1.102363         1.139891
 H        -3.134689         0.610943         0.096524
 H        -2.634704        -2.417921        -0.434868
 H        -4.113221        -1.749521         0.084790
 H        -3.657654        -1.682213        -1.608076
 H        -1.524905         0.162658        -2.547901
 H        -3.340306         0.311020        -2.445035
 H        -2.925065         3.672083        -2.254617
