19
Iteration:  2658
 C         0.974966         0.464451         0.219043
 C        -0.377085         0.121087         0.284249
 C        -1.527316        -0.215467         0.305260
 C        -2.767755        -0.528915        -0.371225
 C        -2.920910        -2.042360        -0.790391
 C        -2.713638         0.449593        -1.691588
 O        -2.730789         1.823427        -1.225427
 C        -2.796135         2.807045        -2.077303
 O        -3.015726         2.728253        -3.261968
 H         1.730762         0.384430         1.024751
 H         1.618108        -0.063028        -0.637634
 H         1.001019         1.524813         0.033458
 H        -3.757739        -0.302182         0.077633
 H        -3.900738        -2.056338        -1.279668
 H        -2.079486        -2.179506        -1.550499
 H        -2.928315        -2.614311         0.173559
 H        -1.708502         0.215943        -2.101187
 H        -3.429737         0.131257        -2.467587
 H        -2.283597         3.705040        -1.625529
