19
Iteration:  3216
 C         1.135845         0.473709         0.793505
 C        -0.255528         0.096309         0.439036
 C        -1.262382        -0.407023         0.048767
 C        -2.610105        -0.542412        -0.513010
 C        -3.195737        -1.837776        -1.070588
 C        -2.682639         0.429229        -1.696942
 O        -2.276454         1.950280        -1.421904
 C        -2.850169         2.832111        -2.204140
 O        -3.683729         2.571815        -3.046015
 H         1.082851         1.265635         1.616336
 H         1.789409        -0.371703         0.874009
 H         1.340353         1.055477        -0.188503
 H        -3.163935        -0.248753         0.371544
 H        -4.052255        -1.726900        -1.796672
 H        -2.455132        -2.417209        -1.718303
 H        -3.607865        -2.555288        -0.345967
 H        -2.003619         0.079759        -2.448850
 H        -3.769312         0.473559        -1.938202
 H        -2.358820         3.795643        -2.117093
