19
Iteration:  3782charge 0 multiplicity 1
 C         1.530593        -1.011732         0.895243
 C         0.219150        -0.436598         0.460073
 C        -0.753342        -0.027576        -0.191184
 C        -2.251295         0.304802        -0.330338
 C        -3.067239        -0.821485        -1.015621
 C        -2.450581         1.636782        -0.969872
 O        -3.798690         1.733277        -1.384846
 C        -3.884625         1.993730        -2.740868
 O        -3.046777         2.368277        -3.501823
 H         2.037488        -0.176267         1.314706
 H         1.297131        -1.826967         1.717203
 H         2.294819        -1.534865         0.110257
 H        -2.634813         0.341528         0.739860
 H        -3.822781        -1.248609        -0.273272
 H        -3.427418        -0.669618        -2.021831
 H        -2.570835        -1.793958        -1.153634
 H        -2.362972         2.357366        -0.256535
 H        -1.702322         1.767882        -1.781125
 H        -4.925464         1.733635        -3.143929
