19
Iteration:   365
 C         1.358568         0.222920        -0.276736
 C        -0.077137         0.200716        -0.258240
 C        -1.247981        -0.029821        -0.150243
 C        -2.680770        -0.106725         0.006002
 C        -3.136493        -1.516480         0.020689
 C        -3.505876         0.573799        -1.146532
 O        -3.180914         2.034434        -1.227718
 C        -2.624857         2.458949        -2.395760
 O        -2.640415         1.926376        -3.464578
 H         1.752708         0.317344         0.899905
 H         1.904110        -0.676704        -0.521079
 H         1.828765         1.082278        -0.731964
 H        -3.003262         0.363466         1.033970
 H        -2.520805        -2.226517         0.591985
 H        -4.063115        -1.616359         0.574143
 H        -3.144301        -1.964640        -0.987839
 H        -3.346311         0.028765        -2.138643
 H        -4.536889         0.517463        -0.827503
 H        -1.963599         3.387780        -2.053458
