19
Iteration:  1021
 C         1.191432         0.194947         0.867233
 C        -0.173596         0.082927         0.470262
 C        -1.160455         0.018891        -0.220274
 C        -2.603287        -0.062160        -0.679125
 C        -2.957156        -1.625580        -0.332145
 C        -2.723322         0.213066        -2.158975
 O        -2.298279         1.518835        -2.735836
 C        -3.010694         2.699184        -2.405930
 O        -3.914538         2.702923        -1.620628
 H         1.465437        -0.754415         1.277954
 H         1.674058         0.124301        -0.130763
 H         1.499570         1.033563         1.418973
 H        -3.069718         0.740672        -0.076786
 H        -3.730911        -1.769662         0.459364
 H        -3.338656        -2.252583        -1.155373
 H        -2.059073        -1.970832         0.164547
 H        -2.248235        -0.503293        -2.885187
 H        -3.846042         0.164908        -2.404200
 H        -2.914453         3.619436        -3.083873
