19
Iteration:   948charge 0 multiplicity 1
 C         1.322804         0.021557         0.878943
 C        -0.029272         0.134172         0.271677
 C        -1.088697         0.023855        -0.286393
 C        -2.477801        -0.011896        -0.647278
 C        -3.218384        -1.495042        -0.234573
 C        -2.693412         0.283780        -2.070656
 O        -2.144731         1.655247        -2.430125
 C        -3.052276         2.662904        -2.367730
 O        -4.209749         2.488337        -2.026182
 H         1.827289        -0.734785         0.308922
 H         1.990013         0.923015         0.976393
 H         1.076142        -0.419961         1.924990
 H        -2.899616         0.775436         0.041225
 H        -3.476709        -1.590881         0.825400
 H        -4.116738        -1.656749        -0.837760
 H        -2.482730        -2.320733        -0.358027
 H        -2.200286        -0.371199        -2.808224
 H        -3.766571         0.253627        -2.294977
 H        -2.653853         3.646784        -2.643520
