19
Iteration:  3556
 C         1.479303        -0.252063         1.307396
 C         0.162537        -0.323151         0.528771
 C        -0.897876        -0.425911        -0.048087
 C        -2.324467        -0.139228        -0.661885
 C        -3.088802        -1.388884        -0.900876
 C        -2.499748         0.739054        -1.858120
 O        -3.024060         1.998243        -1.353888
 C        -3.676371         2.752700        -2.293680
 O        -3.662927         2.572709        -3.483746
 H         1.837834        -1.318152         1.636662
 H         2.322530         0.111860         0.749951
 H         1.547288         0.378817         2.180731
 H        -2.865889         0.385274         0.156863
 H        -4.131812        -1.105995        -1.063311
 H        -2.848648        -1.939734        -1.781987
 H        -3.003956        -2.107600        -0.113316
 H        -1.566382         0.945864        -2.404779
 H        -3.226121         0.514460        -2.625623
 H        -4.156403         3.682624        -1.857721
