19
Iteration:  4322charge 0 multiplicity 1
 C         1.402524        -0.627746         1.097297
 C         0.060163        -0.268128         0.618329
 C        -1.090170        -0.165820         0.142223
 C        -2.414405        -0.048085        -0.566004
 C        -2.674510        -1.328917        -1.382104
 C        -2.292508         1.314379        -1.308560
 O        -3.495136         2.007302        -1.253885
 C        -3.788445         2.619335        -2.478167
 O        -3.339794         2.207712        -3.510482
 H         2.092875         0.198529         0.869328
 H         1.638849        -0.820885         2.126369
 H         1.582723        -1.668437         0.545832
 H        -3.217895         0.054164         0.148794
 H        -3.782686        -1.746745        -1.436764
 H        -2.493991        -1.301240        -2.436461
 H        -2.000327        -2.143967        -1.052134
 H        -1.482404         1.931445        -0.960119
 H        -2.064054         1.054720        -2.404775
 H        -4.589117         3.294429        -2.275395
