19
Iteration:   602charge 0 multiplicity 1
 C         1.527039        -0.117149         0.412982
 C         0.076974        -0.009466         0.147044
 C        -1.112694        -0.162293        -0.057402
 C        -2.556662        -0.063066        -0.255864
 C        -3.100243        -1.475589        -0.014601
 C        -2.990126         0.520235        -1.563299
 O        -2.492555         1.962944        -1.588378
 C        -3.059766         2.693988        -2.557588
 O        -3.922144         2.306992        -3.314086
 H         1.887367        -0.729002        -0.292152
 H         1.914628         0.861151         0.219891
 H         1.856305        -0.556767         1.484612
 H        -2.952968         0.656391         0.551766
 H        -2.770506        -1.881416         0.980809
 H        -4.181539        -1.542053         0.043496
 H        -2.480835        -2.117157        -0.697511
 H        -2.492907         0.130772        -2.483731
 H        -4.053063         0.600570        -1.775339
 H        -2.730568         3.848948        -2.575141
