19
Iteration:  2762
 C         1.148353         0.332267         0.982687
 C        -0.037293         0.069436         0.208194
 C        -1.130034        -0.305189        -0.224664
 C        -2.528240        -0.510494        -0.453852
 C        -3.004930        -1.856580        -0.992292
 C        -3.226693         0.586535        -1.411616
 O        -2.724818         1.940573        -1.191177
 C        -2.726005         2.716819        -2.369345
 O        -3.409755         2.640167        -3.359608
 H         0.989927         1.180459         1.669289
 H         1.609345        -0.330688         1.624417
 H         2.053416         0.520419         0.267670
 H        -3.052424        -0.343834         0.512631
 H        -4.059227        -1.761338        -1.488978
 H        -2.332306        -2.229581        -1.801264
 H        -3.040872        -2.763186        -0.364295
 H        -3.059478         0.303514        -2.484213
 H        -4.282580         0.613685        -1.171210
 H        -1.828334         3.365168        -2.455023
