19
Iteration:  3301charge 0 multiplicity 1
 C         1.003200         0.486262         0.920811
 C        -0.221733        -0.011131         0.361300
 C        -1.244152        -0.483380        -0.136725
 C        -2.556311        -0.481479        -0.625923
 C        -3.039439        -1.987009        -0.617477
 C        -2.625100         0.350893        -2.018975
 O        -2.422967         1.825927        -1.549433
 C        -2.872722         2.880362        -2.168011
 O        -3.721557         2.946288        -3.001923
 H         1.312119         1.589278         1.168541
 H         1.004773         0.023974         1.928538
 H         1.950869         0.044323         0.444096
 H        -3.330618        -0.112547         0.124911
 H        -4.062642        -1.779392        -0.706380
 H        -2.674216        -2.445537        -1.548048
 H        -2.603281        -2.525920         0.163429
 H        -1.911265         0.009613        -2.701531
 H        -3.622005         0.246367        -2.568840
 H        -2.295649         3.781073        -1.699285
