19
Iteration:  1788
 C         1.445415        -0.113638         0.937792
 C         0.126500        -0.049853         0.269486
 C        -1.056399         0.020834        -0.068910
 C        -2.548626        -0.173983        -0.322912
 C        -2.790570        -1.641242        -0.549329
 C        -3.070931         0.573191        -1.692820
 O        -2.783761         1.933693        -1.473039
 C        -3.185581         2.789807        -2.465053
 O        -3.723778         2.377435        -3.428992
 H         1.495409        -1.138982         1.356060
 H         2.174996         0.116309         0.129786
 H         1.502548         0.705645         1.626833
 H        -3.138265         0.122365         0.609421
 H        -2.573718        -2.124849         0.379698
 H        -3.825971        -1.698656        -0.923606
 H        -1.967544        -2.011450        -1.115956
 H        -2.650907         0.039996        -2.523103
 H        -4.156490         0.470783        -1.783983
 H        -3.002524         3.916506        -2.269383
