19
Iteration:   310charge 0 multiplicity 1
 C         1.291456         0.412937        -0.489611
 C        -0.135955         0.096177        -0.370716
 C        -1.321201         0.148511        -0.189328
 C        -2.775663        -0.112286        -0.055834
 C        -3.298622        -1.585215         0.142146
 C        -3.467379         0.617522        -1.189538
 O        -3.158001         1.954491        -1.149817
 C        -2.651733         2.459589        -2.331747
 O        -2.232220         1.794343        -3.236707
 H         2.091125        -0.252818         0.162566
 H         1.588897         0.044340        -1.485972
 H         1.516257         1.457857        -0.482737
 H        -3.088416         0.487738         0.910355
 H        -3.104383        -1.806984         1.207644
 H        -4.271530        -1.899684        -0.204743
 H        -2.662282        -2.323317        -0.378356
 H        -3.327161         0.063445        -2.168179
 H        -4.496212         0.446096        -0.892032
 H        -2.884818         3.574112        -2.300802
