19
Iteration:   776charge 0 multiplicity 1
 C         1.460107        -0.233368         0.661668
 C         0.107185        -0.117936         0.163335
 C        -1.119105         0.058457         0.121920
 C        -2.456480         0.094172        -0.324311
 C        -3.087923        -1.399256        -0.109595
 C        -2.594335         0.397171        -1.854054
 O        -2.281299         1.795062        -2.122715
 C        -3.269387         2.695839        -2.361372
 O        -4.337391         2.459076        -2.924554
 H         1.743139         0.350106         1.653887
 H         1.711873        -1.317053         0.647388
 H         2.136194        -0.087041        -0.178349
 H        -3.042346         0.786779         0.257592
 H        -3.223362        -1.469632         0.971788
 H        -4.046404        -1.585281        -0.574804
 H        -2.524556        -2.242520        -0.548835
 H        -1.940785        -0.192356        -2.456962
 H        -3.623084         0.285880        -2.151520
 H        -3.001749         3.701389        -2.085182
