19
Iteration:  3452charge 0 multiplicity 1
 C         1.257449        -0.209444         1.148789
 C        -0.108174        -0.180620         0.671976
 C        -1.116893        -0.020265         0.059813
 C        -2.457276        -0.288793        -0.480801
 C        -2.761900        -1.674884        -0.986708
 C        -2.796303         0.566881        -1.871951
 O        -2.533634         1.954868        -1.629159
 C        -3.225129         2.863931        -2.303876
 O        -3.915764         2.639435        -3.277100
 H         1.887021        -0.611452         0.433054
 H         1.739988         0.809823         1.324706
 H         1.494236        -0.842815         2.014696
 H        -3.172435         0.000496         0.264705
 H        -3.854294        -1.572116        -1.158531
 H        -2.179319        -1.806639        -1.946177
 H        -2.700400        -2.439967        -0.196764
 H        -1.940495         0.293057        -2.555352
 H        -3.865447         0.392966        -2.259362
 H        -2.948573         3.829865        -1.905134
