19
Iteration:  1065
 C         1.209138         0.332627         0.928255
 C        -0.119581         0.286506         0.155774
 C        -1.269172         0.218679        -0.237038
 C        -2.646731        -0.176321        -0.736121
 C        -3.145268        -1.608485        -0.474656
 C        -2.779007         0.133099        -2.199186
 O        -2.289384         1.435947        -2.691320
 C        -2.852402         2.491642        -2.220633
 O        -3.767816         2.673334        -1.431402
 H         1.258869         0.041676         1.960441
 H         1.913900        -0.396108         0.473200
 H         1.550326         1.288792         0.823565
 H        -3.445300         0.464646        -0.317642
 H        -3.944132        -1.626744         0.294992
 H        -3.585379        -1.922765        -1.448615
 H        -2.351548        -2.181828         0.031621
 H        -2.169827        -0.647880        -2.737610
 H        -3.847187        -0.105652        -2.524722
 H        -2.440500         3.438811        -2.812261
