19
Iteration:  2904
 C         1.331858        -0.221492         0.813684
 C        -0.121180        -0.255014         0.593067
 C        -1.222120        -0.061691         0.216680
 C        -2.551621        -0.221341        -0.488630
 C        -2.732317        -1.761497        -0.681187
 C        -2.580758         0.584147        -1.864250
 O        -2.868383         1.905764        -1.406191
 C        -3.442627         2.830066        -2.312092
 O        -3.537877         2.806149        -3.523506
 H         1.815438         0.227231        -0.070998
 H         1.610273         0.573726         1.496134
 H         1.886044        -1.198690         1.063866
 H        -3.390480         0.067112         0.177139
 H        -3.471218        -1.787341        -1.558660
 H        -1.747882        -2.208247        -0.903242
 H        -3.061936        -2.201708         0.258273
 H        -1.592173         0.732976        -2.371612
 H        -3.376490         0.150364        -2.432600
 H        -3.578844         3.780727        -1.747443
