19
Iteration:  2392charge 0 multiplicity 1
 C         1.258984         0.444085         0.271155
 C        -0.251019         0.224778         0.228781
 C        -1.441183         0.056143        -0.021893
 C        -2.801121        -0.452011        -0.374200
 C        -2.846127        -1.978897        -0.700710
 C        -3.397547         0.458588        -1.526204
 O        -3.446251         1.876746        -1.301219
 C        -2.852688         2.717038        -2.252249
 O        -2.072932         2.408324        -3.117073
 H         1.670353         1.420304         0.022581
 H         1.664284         0.312850         1.299543
 H         1.755770        -0.408076        -0.105864
 H        -3.407313        -0.373748         0.559369
 H        -1.943825        -2.363935        -0.188999
 H        -3.675507        -2.564070        -0.264023
 H        -2.903617        -2.127786        -1.790146
 H        -2.757904         0.283146        -2.370927
 H        -4.442160         0.065958        -1.601673
 H        -2.889921         3.796756        -1.990367
