19
Iteration:  2951
 C         1.379362        -0.279164         0.859940
 C        -0.045704        -0.124811         0.478141
 C        -1.178333        -0.098211         0.115120
 C        -2.507042        -0.223086        -0.491598
 C        -2.886693        -1.713900        -0.769674
 C        -2.472404         0.694302        -1.776097
 O        -2.991008         2.006230        -1.303355
 C        -3.476381         2.763642        -2.310608
 O        -3.483143         2.648182        -3.535789
 H         2.092198        -0.689048         0.072816
 H         1.781527         0.656336         1.151109
 H         1.267597        -0.993739         1.737717
 H        -3.204585         0.074905         0.322366
 H        -3.753270        -1.719250        -1.489462
 H        -1.942014        -2.116814        -1.241760
 H        -2.978626        -2.270098         0.235524
 H        -1.366218         0.751959        -1.966187
 H        -3.156863         0.369442        -2.577067
 H        -4.137139         3.488603        -1.721427
