19
Iteration:  1637
 C         1.443032        -0.038828         0.800586
 C         0.019565         0.037101         0.537309
 C        -1.060850        -0.187983         0.043480
 C        -2.492138        -0.055454        -0.487980
 C        -3.230382        -1.581736        -0.575896
 C        -2.428599         0.564270        -1.910634
 O        -2.267135         2.011985        -1.818332
 C        -3.267798         2.729465        -2.419064
 O        -4.288585         2.228675        -2.882781
 H         2.058927         0.150054        -0.057834
 H         1.618114         0.625910         1.642805
 H         1.523738        -1.182690         1.032757
 H        -3.089004         0.592063         0.100040
 H        -2.372454        -2.250089        -0.606309
 H        -3.863922        -1.626308         0.390610
 H        -3.999079        -1.692359        -1.347550
 H        -1.549370         0.140651        -2.463534
 H        -3.393367         0.301815        -2.417346
 H        -3.062236         3.721706        -2.541793
