19
Iteration:  4254
 C         1.419807        -0.933311         1.311591
 C         0.251421        -0.569724         0.551448
 C        -0.849394        -0.225706         0.164995
 C        -2.108732         0.163230        -0.406081
 C        -2.814030        -0.818721        -1.370823
 C        -2.129452         1.608661        -1.156564
 O        -3.576347         1.880022        -1.399051
 C        -4.142192         2.176540        -2.637515
 O        -3.558219         2.336763        -3.705923
 H         1.821351        -0.085388         1.860930
 H         1.276731        -1.825037         2.011859
 H         2.242646        -1.206314         0.480854
 H        -2.728309         0.383605         0.467194
 H        -3.343349        -0.278733        -2.189373
 H        -2.161054        -1.500656        -1.988155
 H        -3.394604        -1.663694        -0.909411
 H        -1.554064         2.434903        -0.528937
 H        -1.552205         1.557489        -2.092704
 H        -5.228632         2.128435        -2.561404
