19
Iteration:  2438charge 0 multiplicity 1
 C         1.283796         0.154267         0.454596
 C        -0.126752         0.162092         0.250621
 C        -1.363226         0.236889        -0.014689
 C        -2.781132        -0.258088        -0.367580
 C        -2.616473        -1.717732        -0.838692
 C        -3.444803         0.477003        -1.561198
 O        -3.563721         1.857307        -1.308107
 C        -2.883368         2.633261        -2.174581
 O        -2.280434         2.267722        -3.149234
 H         1.844367         0.552623        -0.463054
 H         1.794772         0.590840         1.277538
 H         1.640163        -0.856781         0.556629
 H        -3.429496        -0.164841         0.513670
 H        -2.408433        -2.405520         0.035777
 H        -3.656244        -2.008355        -1.169254
 H        -2.085398        -1.778157        -1.815280
 H        -2.686172         0.304750        -2.366945
 H        -4.427232         0.041095        -1.742507
 H        -3.109226         3.708812        -2.112394
