19
Iteration:   355charge 0 multiplicity 1
 C         1.291574         0.227974        -0.252931
 C        -0.117244         0.277300        -0.328527
 C        -1.227607        -0.070450        -0.148477
 C        -2.639412        -0.088760        -0.029565
 C        -3.139452        -1.565644         0.048907
 C        -3.463681         0.611916        -1.106214
 O        -3.186271         2.009196        -1.232483
 C        -2.586735         2.448897        -2.341367
 O        -2.593927         1.894599        -3.438626
 H         1.647234         0.189079         0.916224
 H         1.568611        -0.674834        -0.868916
 H         1.684426         1.127704        -0.801135
 H        -2.873983         0.463830         0.981076
 H        -2.544776        -2.154668         0.761548
 H        -4.217407        -1.461186         0.261381
 H        -3.224096        -2.012070        -0.957409
 H        -3.262687         0.122211        -2.136961
 H        -4.529812         0.489167        -0.894421
 H        -2.374272         3.577383        -2.266356
