19
Iteration:  2300charge 0 multiplicity 1
 C         0.932004         1.069336         0.150408
 C        -0.302173         0.221886        -0.034633
 C        -1.321548        -0.320982        -0.303225
 C        -2.762222        -0.517028        -0.456577
 C        -3.318017        -1.907411        -0.426083
 C        -3.353599         0.296243        -1.653781
 O        -3.193872         1.664658        -1.203082
 C        -2.487906         2.607961        -1.937547
 O        -1.926563         2.462132        -3.003034
 H         0.829128         1.666647         1.017738
 H         1.760000         0.358002         0.258333
 H         1.187686         1.395747        -0.835497
 H        -3.214493         0.110379         0.343251
 H        -3.777559        -2.145135         0.513322
 H        -4.075587        -2.054956        -1.190836
 H        -2.529982        -2.550340        -0.784216
 H        -2.830376         0.249247        -2.660191
 H        -4.438616         0.229388        -1.690570
 H        -2.800114         3.529853        -1.360356
