19
Iteration:   826charge 0 multiplicity 1
 C         1.473395        -0.134057         0.596416
 C         0.004696        -0.085019         0.449160
 C        -1.039465        -0.080837        -0.170560
 C        -2.486876        -0.030672        -0.390309
 C        -3.264553        -1.322230        -0.196584
 C        -2.558281         0.477898        -1.848977
 O        -2.159544         1.893595        -2.026027
 C        -3.212945         2.635437        -2.601828
 O        -4.364651         2.332492        -2.561626
 H         1.722299         0.886023         0.627767
 H         1.847409        -0.590926         1.538852
 H         2.016464        -0.714883        -0.202263
 H        -2.948970         0.745027         0.303712
 H        -3.602160        -1.527961         0.839268
 H        -4.148430        -1.434284        -0.878607
 H        -2.682132        -2.203913        -0.551624
 H        -1.732127        -0.007692        -2.447603
 H        -3.539644         0.335375        -2.407324
 H        -2.765081         3.600591        -3.098174
