19
Iteration:   262
 C         1.152810         0.497898        -0.825941
 C        -0.177740         0.132182        -0.272019
 C        -1.358479         0.006462        -0.043105
 C        -2.805520        -0.131620         0.043110
 C        -3.234327        -1.614037         0.221578
 C        -3.495347         0.572883        -1.131034
 O        -3.429742         2.001529        -1.408009
 C        -2.453257         2.398777        -2.206950
 O        -1.972606         1.863293        -3.191898
 H         1.952166        -0.337886        -0.774149
 H         1.249236         0.963232        -1.837829
 H         1.577481         1.269220        -0.124812
 H        -3.130992         0.398831         0.990171
 H        -2.744021        -1.938661         1.115674
 H        -4.327741        -1.705641         0.359742
 H        -3.051987        -2.326571        -0.577352
 H        -3.186394         0.007377        -1.958737
 H        -4.550696         0.335544        -0.959983
 H        -2.080988         3.365829        -1.698385
