19
Iteration:   407charge 0 multiplicity 1
 C         1.412460         0.171780        -0.167617
 C        -0.041033         0.007227        -0.021256
 C        -1.268690         0.077135        -0.153494
 C        -2.639279        -0.123325        -0.125593
 C        -3.079464        -1.543505         0.009292
 C        -3.465010         0.616382        -1.165193
 O        -3.000483         2.004269        -1.234312
 C        -2.737153         2.548346        -2.462746
 O        -2.894926         1.986142        -3.523938
 H         1.869375         0.811636         0.688568
 H         1.911855        -0.677241         0.223729
 H         1.588963         0.483115        -1.130332
 H        -2.881749         0.495673         0.784034
 H        -2.267556        -2.144435         0.441664
 H        -3.975233        -1.718613         0.563614
 H        -3.320164        -1.979149        -0.982461
 H        -3.501678         0.116645        -2.154989
 H        -4.439042         0.468560        -0.725071
 H        -2.050014         3.474517        -2.183280
