19
Iteration:  4402
 C         1.372824        -0.143409         1.012446
 C         0.012683        -0.561734         0.654156
 C        -1.046427        -0.480745         0.075072
 C        -2.354583        -0.109035        -0.527165
 C        -2.996990        -1.334455        -1.273975
 C        -2.131202         1.199512        -1.338240
 O        -3.369631         1.854766        -1.349155
 C        -3.862250         2.462621        -2.454019
 O        -3.232965         2.604794        -3.474737
 H         2.049701        -0.207388         0.084141
 H         1.163014         0.803940         1.518695
 H         1.871327        -0.792852         1.708825
 H        -3.038038         0.193489         0.246496
 H        -4.058159        -1.271235        -1.473478
 H        -2.626833        -1.638559        -2.335728
 H        -2.945782        -2.339694        -0.803374
 H        -1.460907         1.751941        -0.671957
 H        -1.650670         1.067861        -2.280610
 H        -4.821978         2.911110        -2.224479
