19
Iteration:  4900charge 0 multiplicity 1
 C         1.179601         0.078249         1.202724
 C        -0.033781        -0.107084         0.483342
 C        -1.014842        -0.300125        -0.284856
 C        -2.290526         0.072951        -0.885248
 C        -3.292537        -1.031299        -0.581566
 C        -2.182511         0.474738        -2.321063
 O        -3.437799         1.145836        -2.779492
 C        -3.623495         2.318222        -2.240729
 O        -2.925035         2.935334        -1.496536
 H         1.947174         0.147939         0.455480
 H         1.224742         0.924284         1.890557
 H         1.401866        -0.782874         1.888068
 H        -2.631555         0.982690        -0.289421
 H        -4.201541        -0.845073        -1.108676
 H        -2.740837        -1.978748        -0.994488
 H        -3.393066        -1.138707         0.531539
 H        -1.347390         1.162237        -2.346265
 H        -2.109023        -0.442140        -2.888460
 H        -4.469929         2.820277        -2.823272
