19
Iteration:   917
 C         1.369622         0.039830         0.833678
 C        -0.045502        -0.112911         0.255552
 C        -1.194869        -0.031183        -0.129078
 C        -2.516372         0.002068        -0.727133
 C        -3.149929        -1.392757        -0.124154
 C        -2.576111         0.351791        -2.152905
 O        -2.137774         1.707209        -2.298061
 C        -3.109565         2.655727        -2.292309
 O        -4.285049         2.446831        -2.229417
 H         1.996700        -0.195916        -0.028601
 H         1.678274         0.978559         1.277794
 H         1.523926        -0.702162         1.485111
 H        -2.982244         0.895789        -0.253982
 H        -2.609219        -1.367412         0.826929
 H        -4.244223        -1.316439         0.047068
 H        -2.921836        -2.262446        -0.815909
 H        -1.905273        -0.322148        -2.688437
 H        -3.603355         0.236659        -2.425131
 H        -2.721506         3.666325        -2.586565
