19
Iteration:  1773
 C         1.371586        -0.124568         0.890175
 C         0.046625        -0.040813         0.348645
 C        -1.069314         0.023308        -0.107859
 C        -2.435809        -0.085328        -0.434266
 C        -2.785025        -1.622990        -0.483931
 C        -2.979296         0.483487        -1.651740
 O        -2.755661         1.954358        -1.468170
 C        -3.176636         2.738834        -2.433392
 O        -3.829656         2.404294        -3.423045
 H         1.746774        -1.191341         1.108035
 H         2.297799         0.103740         0.300921
 H         1.464524         0.473055         1.816659
 H        -2.988803         0.521275         0.276575
 H        -3.296025        -2.113882         0.418824
 H        -3.506300        -1.836648        -1.288825
 H        -1.909245        -2.208876        -0.905328
 H        -2.455012         0.324020        -2.603015
 H        -4.048586         0.249758        -1.777653
 H        -2.836484         3.717639        -2.263040
