19
Iteration:  4435
 C         1.409871        -0.226999         1.123591
 C         0.173563        -0.334063         0.472076
 C        -0.924610        -0.539100         0.034282
 C        -2.295975        -0.137354        -0.444941
 C        -3.133623        -1.208789        -1.304427
 C        -2.284158         1.093227        -1.368113
 O        -3.513327         1.722973        -1.351014
 C        -3.892308         2.424794        -2.517115
 O        -3.098853         2.647711        -3.381916
 H         2.374147        -0.474847         0.524741
 H         1.619091         0.864291         1.286476
 H         1.286266        -0.718634         2.055820
 H        -2.893430         0.165951         0.385133
 H        -3.720569        -0.425679        -1.786116
 H        -2.402005        -1.723480        -2.050421
 H        -3.886012        -1.721114        -0.694734
 H        -1.602099         1.821059        -0.882223
 H        -1.984133         0.764851        -2.314665
 H        -4.856999         2.872716        -2.377131
