19
Iteration:  1571
 C         1.305379         0.020529         0.894252
 C        -0.059686        -0.092245         0.476772
 C        -1.162441        -0.028490        -0.052723
 C        -2.516772         0.021773        -0.613676
 C        -3.053727        -1.544891        -0.456442
 C        -2.451929         0.462552        -2.070665
 O        -2.121824         1.885256        -2.173385
 C        -3.210768         2.654233        -2.283884
 O        -4.358683         2.312710        -2.495554
 H         1.818341         0.959773         0.837848
 H         1.380189        -0.302751         1.949221
 H         1.971726        -0.702503         0.294770
 H        -3.240873         0.584073        -0.080554
 H        -3.742476        -1.387237         0.385888
 H        -3.742882        -1.722366        -1.322179
 H        -2.255430        -2.230844        -0.233622
 H        -1.594200        -0.074132        -2.497722
 H        -3.399712         0.334769        -2.660251
 H        -2.935081         3.682410        -2.330160
