19
Iteration:  2025
 C         1.071996         0.708172         0.230209
 C        -0.279331         0.260404        -0.088645
 C        -1.420093        -0.090717        -0.252293
 C        -2.744938        -0.444281        -0.302296
 C        -2.969039        -1.962925        -0.459895
 C        -3.290930         0.393780        -1.504894
 O        -3.264350         1.812355        -1.127065
 C        -2.727777         2.641517        -2.155619
 O        -2.144279         2.354563        -3.214384
 H         1.276040         1.433249        -0.584531
 H         1.275688         1.356371         1.103724
 H         1.802343        -0.123635         0.144579
 H        -3.239365        -0.145040         0.650036
 H        -2.206320        -2.412974         0.153882
 H        -3.906012        -2.301993         0.007192
 H        -2.995142        -2.383901        -1.462569
 H        -2.830139         0.283091        -2.467842
 H        -4.393806         0.090477        -1.623028
 H        -3.117522         3.689554        -1.687596
