19
Iteration:   421
 C         1.389526         0.130859        -0.072874
 C        -0.034093         0.119858        -0.049688
 C        -1.236936        -0.114162        -0.189837
 C        -2.676905        -0.063153        -0.048536
 C        -3.063055        -1.573918        -0.006368
 C        -3.389240         0.639886        -1.186127
 O        -2.951932         2.027633        -1.230749
 C        -2.762374         2.529560        -2.474250
 O        -2.971937         2.006248        -3.527707
 H         1.823443         1.098457         0.361925
 H         1.771870        -0.839172         0.229397
 H         1.764559         0.122632        -1.065670
 H        -2.997215         0.405031         0.961028
 H        -2.279467        -2.032523         0.585569
 H        -4.052064        -1.745572         0.456236
 H        -3.024432        -1.989257        -1.013978
 H        -3.165128         0.196810        -2.190085
 H        -4.461356         0.777245        -1.066190
 H        -2.531004         3.661217        -2.431694
