19
Iteration:  3696
 C         1.577334        -0.839567         0.855250
 C         0.165224        -0.451656         0.684194
 C        -0.952948        -0.166291         0.216486
 C        -2.272439         0.201519        -0.395436
 C        -2.894009        -1.141076        -1.072198
 C        -2.206190         1.405373        -1.308689
 O        -3.688444         1.858555        -1.357241
 C        -3.985438         2.370866        -2.595209
 O        -3.301464         2.399437        -3.625662
 H         2.110365        -0.763916         1.797116
 H         1.698039        -1.878520         0.579667
 H         2.023098        -0.274682         0.010278
 H        -3.036385         0.504654         0.292960
 H        -3.571646        -0.802248        -1.940091
 H        -2.109888        -1.811005        -1.372987
 H        -3.363141        -1.728897        -0.272625
 H        -1.623104         2.177675        -0.760603
 H        -1.764050         1.293004        -2.376506
 H        -4.946719         2.834253        -2.478276
