19
Iteration:  1829
 C         1.402335        -0.005107         0.753416
 C         0.006500         0.033565         0.374112
 C        -1.121147        -0.095180        -0.044956
 C        -2.518985        -0.319706        -0.319185
 C        -2.820833        -1.769203        -0.598745
 C        -3.085577         0.620496        -1.436285
 O        -2.855093         2.070863        -1.397530
 C        -3.116219         2.824208        -2.514536
 O        -3.532573         2.346491        -3.546446
 H         1.596787        -0.467215         1.784102
 H         1.952523        -0.332329        -0.195848
 H         1.777281         0.989366         0.903351
 H        -2.979434        -0.022156         0.622071
 H        -1.858658        -2.384502        -0.712449
 H        -3.448059        -2.304569         0.144143
 H        -3.342432        -1.891563        -1.576591
 H        -2.543293         0.359087        -2.323713
 H        -4.154307         0.370378        -1.589173
 H        -2.975410         3.777766        -2.162265
