19
Iteration:  3786charge 0 multiplicity 1
 C         1.529346        -1.026523         0.883236
 C         0.212622        -0.432779         0.452230
 C        -0.757708         0.002426        -0.181743
 C        -2.232055         0.290070        -0.314642
 C        -3.053140        -0.828308        -1.035557
 C        -2.486777         1.597818        -0.980343
 O        -3.811670         1.731791        -1.357766
 C        -3.879992         1.997483        -2.738124
 O        -3.011077         2.355353        -3.513075
 H         2.069718        -0.171264         1.358188
 H         1.326679        -1.645262         1.665758
 H         1.991193        -1.498932         0.066778
 H        -2.544668         0.291944         0.694824
 H        -3.774821        -1.064687        -0.243666
 H        -3.576677        -0.733695        -2.011495
 H        -2.462839        -1.739165        -1.141520
 H        -2.417039         2.533182        -0.258074
 H        -1.781061         1.773914        -1.791227
 H        -4.884795         1.882524        -3.072493
