19
Iteration:  3701
 C         1.542012        -0.854201         0.860346
 C         0.140484        -0.468533         0.633897
 C        -0.947085        -0.147808         0.198719
 C        -2.258581         0.155878        -0.374379
 C        -2.900679        -1.041421        -1.059549
 C        -2.217984         1.411511        -1.281367
 O        -3.678455         1.821786        -1.346839
 C        -3.968682         2.359209        -2.622447
 O        -3.310906         2.408514        -3.645288
 H         2.199050        -0.626586         1.765899
 H         1.849639        -1.920268         0.666318
 H         2.171984        -0.355210         0.108474
 H        -2.923595         0.498671         0.481729
 H        -3.542207        -0.879464        -1.884266
 H        -2.080479        -1.667222        -1.509386
 H        -3.310266        -1.655188        -0.250055
 H        -1.694429         2.181894        -0.646165
 H        -1.696126         1.321538        -2.196387
 H        -5.064610         2.669079        -2.563131
