19
Iteration:   880
 C         1.459743         0.002826         0.725185
 C         0.106631        -0.182075         0.295989
 C        -1.073223         0.049730        -0.001504
 C        -2.498779         0.074585        -0.479593
 C        -3.342990        -1.311881        -0.347733
 C        -2.466785         0.316114        -1.903771
 O        -2.202837         1.695861        -2.331780
 C        -3.190533         2.604715        -2.276590
 O        -4.374864         2.464283        -2.444701
 H         2.107808         0.442744         0.018102
 H         1.609569         0.570606         1.678225
 H         1.929484        -1.096316         0.860752
 H        -3.206808         0.842987        -0.042077
 H        -3.017709        -1.989392         0.435303
 H        -4.383431        -1.106810        -0.117719
 H        -3.249196        -1.989807        -1.167739
 H        -1.673257        -0.218725        -2.471474
 H        -3.448368         0.076738        -2.415952
 H        -2.581703         3.487973        -2.137393
