19
Iteration:  3875charge 0 multiplicity 1
 C         1.492943        -0.786641         0.433560
 C         0.069840        -0.390692         0.566579
 C        -1.118278        -0.123599         0.390775
 C        -2.467426         0.175239        -0.190589
 C        -2.782037        -0.995023        -1.221353
 C        -2.349850         1.595474        -0.881192
 O        -3.694802         1.968217        -1.314422
 C        -3.799656         2.152557        -2.701902
 O        -3.016613         2.086485        -3.637059
 H         1.939889        -0.177628        -0.444019
 H         2.156671        -0.614224         1.268148
 H         1.722870        -1.793565         0.195873
 H        -3.229944         0.236029         0.554025
 H        -3.536970        -0.818503        -1.989668
 H        -1.730841        -1.359799        -1.499090
 H        -3.227976        -1.891946        -0.652563
 H        -1.957283         2.337666        -0.039038
 H        -1.664485         1.652884        -1.754424
 H        -4.876396         2.249358        -2.795894
