19
Iteration:  4443
 C         1.460131        -0.247297         1.197006
 C         0.218489        -0.265159         0.357196
 C        -0.960402        -0.485401        -0.004037
 C        -2.332234        -0.179964        -0.425709
 C        -3.163773        -1.188720        -1.274440
 C        -2.248262         1.098945        -1.339965
 O        -3.589867         1.689763        -1.403268
 C        -3.896866         2.418770        -2.495854
 O        -3.056408         2.648730        -3.354434
 H         2.292508        -0.747293         0.654710
 H         1.802861         0.740103         1.358924
 H         1.364157        -0.741797         2.245979
 H        -2.927635         0.114944         0.469577
 H        -3.605554        -0.471221        -2.014362
 H        -2.597860        -1.856517        -1.908180
 H        -3.877282        -1.784711        -0.701802
 H        -1.563709         1.860630        -1.054754
 H        -1.830732         0.984513        -2.406182
 H        -4.871146         2.890607        -2.328348
