19
Iteration:  4023charge 0 multiplicity 1
 C         1.421999        -0.488599         0.960624
 C         0.159296        -0.309449         0.262945
 C        -0.992199        -0.394576        -0.083912
 C        -2.302438         0.028980        -0.466360
 C        -3.200590        -0.898627        -1.328423
 C        -2.234884         1.472401        -0.974406
 O        -3.461474         2.202235        -1.154127
 C        -3.773683         2.248496        -2.543429
 O        -3.188227         1.714460        -3.496442
 H         1.932117        -1.391471         0.954216
 H         2.230734         0.248288         0.628962
 H         1.176770        -0.427056         2.080000
 H        -2.884525         0.080092         0.491317
 H        -3.974367        -1.132151        -0.555242
 H        -3.624598        -0.368932        -2.256321
 H        -2.720809        -1.780252        -1.711879
 H        -1.624824         2.060455        -0.284507
 H        -1.629326         1.430919        -1.890106
 H        -4.646146         2.917886        -2.611250
