19
Iteration:  4318
 C         1.402637        -0.663116         1.108217
 C         0.043097        -0.274058         0.606201
 C        -1.071605        -0.161102         0.120232
 C        -2.417028        -0.029145        -0.585888
 C        -2.667383        -1.325083        -1.373917
 C        -2.274671         1.320329        -1.317516
 O        -3.493521         2.000009        -1.278541
 C        -3.822386         2.632625        -2.481894
 O        -3.335756         2.187186        -3.489216
 H         2.042052         0.187348         0.955357
 H         1.736077        -0.896247         2.168436
 H         1.609936        -1.565434         0.565432
 H        -3.260645        -0.015393         0.175682
 H        -3.704988        -1.608714        -1.248939
 H        -2.350977        -1.183807        -2.437778
 H        -2.060425        -2.150843        -0.941682
 H        -1.463827         2.038386        -0.842040
 H        -2.110378         1.132284        -2.372453
 H        -4.723591         3.291291        -2.276570
