19
Iteration:  4780charge 0 multiplicity 1
 C         1.376937        -0.495852         1.027689
 C         0.007080        -0.231288         0.614520
 C        -1.083268         0.022091         0.075739
 C        -2.412971         0.182557        -0.579519
 C        -3.043444        -1.199492        -0.563563
 C        -2.083515         0.789769        -1.940506
 O        -3.338653         1.047389        -2.765401
 C        -3.754877         2.327674        -2.612805
 O        -3.309805         3.260658        -2.008127
 H         1.974818         0.385487         1.130079
 H         1.377538        -1.085255         1.936740
 H         1.928990        -1.224946         0.357065
 H        -2.974103         0.931817        -0.054614
 H        -4.078078        -1.070911        -0.581672
 H        -2.638956        -1.798465        -1.428362
 H        -2.726146        -1.611366         0.392960
 H        -1.481313         1.664765        -1.750695
 H        -1.576783        -0.008133        -2.468509
 H        -4.737972         2.378644        -3.053899
