19
Iteration:  3407
 C         1.171075        -0.070203         1.010734
 C        -0.192779        -0.044471         0.502797
 C        -1.334885        -0.118932         0.168403
 C        -2.559845        -0.378080        -0.572973
 C        -2.629277        -1.861431        -1.008079
 C        -2.905298         0.648869        -1.666746
 O        -2.341792         2.058008        -1.579410
 C        -2.912924         2.901088        -2.528848
 O        -3.990984         2.585557        -3.053104
 H         2.057268        -0.041388         0.470555
 H         1.326765         0.612309         1.946649
 H         1.136055        -1.029436         1.511827
 H        -3.387902        -0.557330         0.067257
 H        -3.677365        -2.244362        -1.241693
 H        -1.941362        -2.113323        -1.876194
 H        -2.410400        -2.484617        -0.091357
 H        -2.250627         0.381390        -2.571623
 H        -4.013504         0.719608        -1.818237
 H        -2.374389         3.789659        -2.771011
