19
Iteration:  3457
 C         1.272096        -0.225450         1.183044
 C        -0.088990        -0.190515         0.656961
 C        -1.125833        -0.017009         0.036287
 C        -2.432568        -0.227219        -0.502588
 C        -2.794101        -1.716653        -0.952960
 C        -2.743630         0.565938        -1.883495
 O        -2.542000         1.953665        -1.599460
 C        -3.263748         2.872559        -2.311394
 O        -3.906044         2.649824        -3.290168
 H         1.902549        -0.668504         0.299692
 H         1.650446         0.767997         1.292070
 H         1.555487        -0.725345         2.136395
 H        -3.253556         0.015153         0.239494
 H        -3.851851        -1.690860        -1.226523
 H        -2.240649        -1.997876        -1.829076
 H        -2.742448        -2.546234        -0.240604
 H        -2.059429         0.367075        -2.705808
 H        -3.768411         0.406772        -2.198649
 H        -3.128120         3.921478        -1.879434
