19
Iteration:  1850charge 0 multiplicity 1
 C         1.469886         0.110173         0.672808
 C         0.039995         0.019882         0.398243
 C        -1.141632        -0.084012         0.029352
 C        -2.635331        -0.221715        -0.309184
 C        -2.915213        -1.719548        -0.686798
 C        -3.095434         0.567520        -1.578964
 O        -2.932142         1.977844        -1.259690
 C        -3.045701         2.739614        -2.440896
 O        -3.416941         2.315097        -3.534426
 H         1.769430        -0.033131         1.755822
 H         2.031945        -0.602069        -0.043793
 H         2.000324         1.038894         0.568843
 H        -3.239723         0.162154         0.497233
 H        -2.061412        -2.186978        -1.315563
 H        -2.793994        -2.421122         0.154793
 H        -3.930121        -1.940179        -1.105321
 H        -2.628587         0.346574        -2.534106
 H        -4.204625         0.496296        -1.697775
 H        -2.702478         3.744914        -2.225022
