19
Iteration:  1908charge 0 multiplicity 1
 C         1.300137         0.333732         0.422373
 C        -0.107392         0.134568         0.172148
 C        -1.288577        -0.186790         0.032866
 C        -2.736765        -0.360305        -0.300778
 C        -2.966741        -1.894010        -0.531540
 C        -3.001076         0.518367        -1.551143
 O        -2.912067         1.936425        -1.231664
 C        -3.040856         2.801118        -2.325288
 O        -2.976022         2.410935        -3.481214
 H         1.295486         0.913700         1.411597
 H         1.726013        -0.694598         0.753037
 H         1.746540         0.812948        -0.463697
 H        -3.314457         0.063728         0.556559
 H        -3.811293        -2.241515        -1.175783
 H        -1.969599        -2.391423        -0.673546
 H        -3.151350        -2.162599         0.537811
 H        -2.299211         0.232144        -2.325564
 H        -3.980679         0.216323        -1.929216
 H        -3.147598         3.770151        -1.948470
