19
Iteration:  3045
 C         1.354644        -0.192641         1.126289
 C         0.103986        -0.314494         0.376784
 C        -1.056136        -0.253010        -0.098245
 C        -2.405843        -0.231401        -0.489432
 C        -2.798932        -1.682120        -0.894631
 C        -2.891786         0.726665        -1.637005
 O        -2.967957         2.100591        -1.279902
 C        -3.467147         2.842957        -2.346924
 O        -3.453553         2.586440        -3.542602
 H         1.821769        -1.104543         1.486872
 H         1.997073         0.414705         0.365014
 H         0.872385         0.402321         1.874260
 H        -3.092482         0.194092         0.296125
 H        -3.846818        -1.957480        -0.940972
 H        -2.295753        -2.130449        -1.707817
 H        -2.363639        -2.163219        -0.040515
 H        -2.106478         0.706780        -2.461090
 H        -3.832981         0.284873        -1.907696
 H        -3.695660         3.850921        -1.889768
