19
Iteration:  4936charge 0 multiplicity 1
 C         1.204620         0.237929         1.233243
 C         0.163476        -0.199985         0.233168
 C        -0.982738        -0.234549        -0.165790
 C        -2.353106        -0.080038        -0.800467
 C        -3.514787        -1.080855        -0.768391
 C        -2.160501         0.464651        -2.127239
 O        -3.407417         1.131355        -2.684983
 C        -3.601708         2.315630        -2.243131
 O        -2.892874         2.986386        -1.573057
 H         2.323157        -0.021822         1.078674
 H         1.124510         1.253470         1.466462
 H         1.000271        -0.470316         2.084067
 H        -2.532228         0.776790        -0.154855
 H        -4.552337        -0.614524        -0.717371
 H        -3.579645        -1.777153        -1.622587
 H        -3.557631        -1.722319         0.117252
 H        -1.256151         1.251764        -2.188918
 H        -1.983924        -0.122176        -3.060317
 H        -4.457409         2.703113        -2.839302
