19
Iteration:   199
 C         1.017158         0.534992        -0.955456
 C        -0.383441         0.404352        -0.560651
 C        -1.474213         0.091486        -0.071232
 C        -2.834376        -0.101165         0.015194
 C        -3.268158        -1.685943         0.416986
 C        -3.441540         0.452239        -1.300015
 O        -3.357680         1.929731        -1.276563
 C        -2.402764         2.420410        -2.184963
 O        -1.673507         1.737335        -2.907871
 H         1.257252        -0.192710        -1.961691
 H         1.302300         1.454969        -1.392362
 H         1.478458         0.370076        -0.045201
 H        -3.267305         0.581360         0.864380
 H        -2.530563        -2.225928         1.002299
 H        -4.240736        -1.750250         0.868072
 H        -3.264765        -2.129933        -0.584606
 H        -3.074524         0.199337        -2.268173
 H        -4.539237         0.322982        -1.228825
 H        -2.355565         3.515800        -2.240928
