19
Iteration:   671charge 0 multiplicity 1
 C         1.536811        -0.147999         0.691919
 C         0.229400        -0.253941         0.031295
 C        -0.993071        -0.119360         0.082253
 C        -2.409758         0.007739        -0.189153
 C        -3.102565        -1.381377        -0.190330
 C        -2.932973         0.536816        -1.500068
 O        -2.423960         1.891182        -1.834897
 C        -3.193586         2.658042        -2.647112
 O        -4.225350         2.432174        -3.204838
 H         1.866300        -1.041590         1.081513
 H         2.188719         0.028862        -0.175575
 H         1.532075         0.641504         1.493050
 H        -2.809868         0.686615         0.585129
 H        -2.953988        -1.936684         0.741857
 H        -4.209105        -1.323329        -0.482290
 H        -2.449555        -1.868728        -0.933614
 H        -2.716007        -0.137828        -2.403492
 H        -4.044311         0.701645        -1.464833
 H        -2.851730         3.706597        -2.802455
