19
Iteration:   798charge 0 multiplicity 1
 C         1.509681        -0.169825         0.594884
 C         0.065187        -0.237949         0.201018
 C        -1.121689        -0.007723         0.178170
 C        -2.483339         0.016243        -0.416530
 C        -3.138501        -1.307711        -0.128183
 C        -2.580472         0.446917        -1.909293
 O        -2.232421         1.829755        -2.032052
 C        -3.202631         2.705783        -2.536323
 O        -4.387173         2.394405        -2.738735
 H         1.344012         0.857457         1.184810
 H         1.694221        -0.971785         1.333690
 H         2.324157        -0.255565        -0.128891
 H        -3.081315         0.729415         0.107589
 H        -3.447865        -1.333175         0.921726
 H        -3.916831        -1.657494        -0.806426
 H        -2.364126        -2.069445        -0.367901
 H        -1.883069        -0.030185        -2.564216
 H        -3.596304         0.271871        -2.205046
 H        -2.967029         3.752998        -2.589153
