19
Iteration:   545charge 0 multiplicity 1
 C         1.541309        -0.050162         0.092506
 C         0.028856         0.015585         0.155792
 C        -1.179385        -0.064955         0.123780
 C        -2.668904        -0.052267        -0.073781
 C        -3.104772        -1.524308         0.048824
 C        -2.955244         0.475459        -1.540992
 O        -2.653176         1.842306        -1.515039
 C        -3.093924         2.662809        -2.450819
 O        -3.595420         2.392501        -3.525453
 H         1.958412         0.125527        -0.882570
 H         1.965481         0.711243         0.772946
 H         1.847150        -1.029163         0.526261
 H        -3.214862         0.617393         0.686144
 H        -2.528468        -1.938420         0.870289
 H        -4.184096        -1.630482         0.146016
 H        -2.946177        -2.005654        -0.920805
 H        -2.228288         0.014363        -2.182665
 H        -3.932042         0.301626        -2.005299
 H        -2.796947         3.762944        -2.270668
