19
Iteration:   548charge 0 multiplicity 1
 C         1.542847        -0.041998         0.095365
 C         0.021653         0.000843         0.153056
 C        -1.194689        -0.044442         0.110543
 C        -2.655933        -0.033069        -0.054180
 C        -3.110685        -1.515926         0.030759
 C        -2.931179         0.440952        -1.528543
 O        -2.643176         1.836403        -1.510823
 C        -3.099753         2.673259        -2.444180
 O        -3.610173         2.398524        -3.531350
 H         2.053643         0.062160        -0.794578
 H         1.895915         0.762199         0.717553
 H         1.752591        -1.093882         0.559270
 H        -3.167958         0.584224         0.671186
 H        -2.523185        -1.999581         0.844889
 H        -4.197555        -1.584648         0.214119
 H        -2.895239        -1.989599        -0.961407
 H        -2.230842        -0.014721        -2.291271
 H        -3.925376         0.323050        -1.980515
 H        -2.797919         3.670225        -2.302414
