19
Iteration:  4003
 C         1.449574        -0.393552         0.948014
 C         0.154026        -0.402462         0.285876
 C        -0.942651        -0.301485        -0.245773
 C        -2.427807        -0.004825        -0.379266
 C        -3.261560        -1.019142        -1.277754
 C        -2.239629         1.462753        -0.928099
 O        -3.476130         2.216950        -1.248906
 C        -3.680363         2.375132        -2.538198
 O        -3.167127         1.676550        -3.401724
 H         2.085862        -1.248899         0.568166
 H         2.028316         0.487439         0.638942
 H         1.329370        -0.673222         2.054678
 H        -2.960526         0.010261         0.642545
 H        -4.270892        -1.276149        -1.118655
 H        -3.349762        -0.704417        -2.390672
 H        -2.700921        -1.939575        -1.355369
 H        -1.709642         2.060420        -0.171313
 H        -1.609870         1.354976        -1.732239
 H        -4.400444         3.246466        -2.739876
