19
Iteration:   709
 C         1.501118        -0.257756         0.672363
 C         0.145653        -0.071260         0.271149
 C        -1.012437         0.005846        -0.050124
 C        -2.530195         0.001356        -0.316229
 C        -3.029443        -1.510983        -0.044485
 C        -2.854395         0.490725        -1.751828
 O        -2.340315         1.948899        -1.827314
 C        -3.194477         2.737845        -2.666601
 O        -4.285570         2.399051        -3.051927
 H         1.822348        -1.012122         1.546859
 H         1.937067        -0.670570        -0.279261
 H         2.073690         0.640379         0.753027
 H        -3.060351         0.722838         0.296725
 H        -2.445151        -1.952942         0.773375
 H        -4.069947        -1.639454         0.190829
 H        -3.034305        -2.090527        -0.972500
 H        -2.278728        -0.059153        -2.458356
 H        -3.904595         0.425341        -1.996005
 H        -2.567253         3.560701        -2.802075
