19
Iteration:  2888charge 0 multiplicity 1
 C         1.289897        -0.155674         0.826589
 C        -0.095758        -0.180393         0.577296
 C        -1.204174        -0.019125         0.152951
 C        -2.525443        -0.260821        -0.463256
 C        -2.757947        -1.734817        -0.782744
 C        -2.601997         0.477105        -1.733126
 O        -2.958586         1.906481        -1.482904
 C        -3.225153         2.897753        -2.303457
 O        -3.587798         2.745915        -3.445006
 H         1.940306         0.186020        -0.023573
 H         1.623569         0.188901         1.865084
 H         1.689976        -1.148922         0.938969
 H        -3.281935         0.281954         0.112984
 H        -3.594835        -1.954545        -1.372576
 H        -1.967916        -2.289627        -1.276536
 H        -2.928113        -2.299830         0.158277
 H        -1.638059         0.439376        -2.239486
 H        -3.479981         0.232810        -2.415827
 H        -3.407660         3.885520        -1.828836
