19
Iteration:  3201
 C         1.140169         0.470706         0.719194
 C        -0.231189        -0.015733         0.518469
 C        -1.314919        -0.379172         0.137354
 C        -2.650818        -0.493049        -0.506134
 C        -3.079034        -1.956960        -1.065593
 C        -2.716310         0.577754        -1.711064
 O        -2.357447         1.900011        -1.377123
 C        -2.803422         2.846936        -2.306110
 O        -3.723750         2.618892        -3.064199
 H         1.364580         0.923957         1.736787
 H         1.817023        -0.388912         0.623500
 H         1.633419         1.116791        -0.060322
 H        -3.549618        -0.199706         0.089545
 H        -3.978582        -1.711237        -1.585285
 H        -2.271704        -2.360131        -1.656952
 H        -3.299934        -2.548541        -0.187301
 H        -1.995061         0.179982        -2.472828
 H        -3.627535         0.538031        -2.284778
 H        -2.146862         3.775165        -2.190983
