19
Iteration:    49charge 0 multiplicity 1
 C         1.214874         0.413244        -0.641628
 C        -0.157456         0.199194        -0.299486
 C        -1.385886         0.265649        -0.102633
 C        -2.792959        -0.063529        -0.003016
 C        -3.123853        -1.576439         0.282661
 C        -3.673494         0.427777        -1.174594
 O        -3.366829         1.931509        -1.329879
 C        -2.468474         2.435298        -2.300935
 O        -2.015307         1.776117        -3.246054
 H         1.285449         1.452783        -0.675838
 H         2.072300        -0.035030         0.097806
 H         1.487443        -0.164480        -1.685809
 H        -3.143358         0.551509         0.816884
 H        -2.248859        -2.042612         0.789007
 H        -4.066971        -1.713560         0.879487
 H        -3.308667        -2.125693        -0.679464
 H        -3.582427        -0.145178        -2.122236
 H        -4.786186         0.384603        -0.952704
 H        -2.140150         3.520405        -2.012209
