19
Iteration:  2114
 C         1.097196         0.819574        -0.035517
 C        -0.273347         0.430765        -0.090208
 C        -1.431729         0.136937        -0.285752
 C        -2.806919        -0.326346        -0.411005
 C        -2.856322        -1.804140        -0.815116
 C        -3.717114         0.456082        -1.444617
 O        -3.567048         1.841770        -1.180640
 C        -2.537832         2.407450        -1.975815
 O        -1.731415         1.829175        -2.669205
 H         1.790479         0.205531        -0.683891
 H         1.268831         1.940606        -0.227261
 H         1.342805         0.893543         0.994546
 H        -3.326806        -0.211999         0.562158
 H        -2.112402        -2.059912        -1.607591
 H        -2.537917        -2.344752         0.088424
 H        -3.884135        -2.157002        -0.903892
 H        -3.515067         0.124184        -2.508892
 H        -4.786375         0.256192        -1.218380
 H        -2.344827         3.390656        -1.813648
