19
Iteration:  4170charge 0 multiplicity 1
 C         1.241028        -1.172263         1.108538
 C         0.218378        -0.394561         0.519038
 C        -0.768486         0.097663         0.101550
 C        -2.119319         0.303501        -0.405936
 C        -2.470956        -1.054701        -1.236306
 C        -2.251491         1.636383        -1.226324
 O        -3.705970         1.998216        -1.356040
 C        -4.193013         2.196780        -2.649137
 O        -3.430887         2.118951        -3.586119
 H         1.004276        -1.304218         2.255454
 H         1.099476        -2.149499         0.685192
 H         2.291153        -0.922829         1.259970
 H        -2.776407         0.403360         0.533565
 H        -2.060385        -1.004929        -2.345836
 H        -2.019197        -1.809375        -0.623609
 H        -3.578663        -0.912986        -1.374780
 H        -1.813812         2.410135        -0.691607
 H        -1.853064         1.566709        -2.265496
 H        -5.220680         2.725302        -2.539508
