19
Iteration:  2871charge 0 multiplicity 1
 C         1.388683        -0.177511         0.921730
 C        -0.056302         0.007709         0.512201
 C        -1.254283        -0.085717         0.125744
 C        -2.552964        -0.278919        -0.467771
 C        -2.796882        -1.772178        -0.801288
 C        -2.737675         0.552897        -1.817099
 O        -2.910075         1.917837        -1.360366
 C        -3.160758         2.855252        -2.328710
 O        -3.603494         2.698880        -3.455435
 H         1.960283         0.477433         0.272735
 H         1.482836         0.072602         1.981816
 H         1.727868        -1.243281         0.764037
 H        -3.367305        -0.029758         0.245322
 H        -3.888100        -1.945345        -1.178843
 H        -2.128793        -2.026483        -1.661418
 H        -2.680598        -2.476262         0.020359
 H        -1.835289         0.436954        -2.445507
 H        -3.512092         0.131738        -2.443182
 H        -2.733251         3.766851        -1.873872
