19
Iteration:   403charge 0 multiplicity 1
 C         1.415281         0.174227        -0.155703
 C        -0.025971        -0.009189        -0.020969
 C        -1.235780         0.132076        -0.150348
 C        -2.618947        -0.119329        -0.096267
 C        -3.091038        -1.569827         0.004220
 C        -3.511384         0.610686        -1.188319
 O        -3.028023         1.987406        -1.228798
 C        -2.705902         2.533417        -2.459147
 O        -2.873027         1.994495        -3.514854
 H         1.677234         0.837968         0.601382
 H         2.031834        -0.783870         0.043960
 H         1.644863         0.621503        -1.246593
 H        -2.914078         0.363628         0.804201
 H        -2.261314        -2.150638         0.445750
 H        -4.029637        -1.626861         0.624599
 H        -3.418148        -1.986862        -0.963049
 H        -3.537725         0.203721        -2.183427
 H        -4.590151         0.651577        -0.802189
 H        -2.107985         3.359208        -2.270078
