19
Iteration:   209
 C         0.986495         0.510502        -0.911471
 C        -0.370507         0.450927        -0.544366
 C        -1.463581         0.144781        -0.184495
 C        -2.862308        -0.147024         0.031826
 C        -3.263226        -1.582757         0.357428
 C        -3.437669         0.395123        -1.293472
 O        -3.269016         1.923691        -1.218525
 C        -2.441098         2.354132        -2.169660
 O        -1.705422         1.760495        -2.916045
 H         1.198133        -0.487280        -1.555491
 H         1.113860         1.409216        -1.390260
 H         1.705440         0.368129        -0.189485
 H        -3.244854         0.596962         0.857953
 H        -2.509645        -2.135791         0.879526
 H        -4.192365        -1.598543         0.878483
 H        -3.435858        -2.079869        -0.601808
 H        -2.858733         0.007622        -2.092976
 H        -4.510060         0.224631        -1.426447
 H        -2.632122         3.457908        -2.255359
