19
Iteration:  1985
 C         1.250447         0.690524         0.219722
 C        -0.175642         0.172053         0.101948
 C        -1.356911        -0.158104         0.013468
 C        -2.753269        -0.395178        -0.358195
 C        -3.057248        -1.941680        -0.407777
 C        -3.211210         0.344999        -1.651803
 O        -3.203980         1.740147        -1.253929
 C        -2.725485         2.632622        -2.120930
 O        -2.509136         2.551304        -3.327168
 H         1.455205         1.776346        -0.052840
 H         1.490568         0.568060         1.322140
 H         1.841237         0.082224        -0.480047
 H        -3.387041         0.125935         0.362449
 H        -3.416162        -2.373372         0.579057
 H        -3.965269        -2.012363        -1.040541
 H        -2.128054        -2.472265        -0.734861
 H        -2.619947         0.152844        -2.567222
 H        -4.239227         0.037183        -1.721190
 H        -2.474068         3.538934        -1.559810
