19
Iteration:   889
 C         1.415377        -0.004707         0.774680
 C         0.008837        -0.196949         0.247465
 C        -1.115143         0.084158        -0.076111
 C        -2.483770         0.017020        -0.455566
 C        -3.262813        -1.311456        -0.293273
 C        -2.460361         0.317834        -2.020647
 O        -2.167575         1.649658        -2.328466
 C        -3.179088         2.629611        -2.216979
 O        -4.384402         2.490608        -2.417003
 H         1.932151         0.332882        -0.177166
 H         1.521618         0.788742         1.545633
 H         2.064006        -0.990474         1.102943
 H        -2.915994         0.867309         0.114486
 H        -2.863873        -1.856842         0.547667
 H        -4.284451        -0.996466        -0.100365
 H        -3.246805        -1.794748        -1.239069
 H        -1.590444        -0.319135        -2.219041
 H        -3.381398        -0.083443        -2.495918
 H        -2.710416         3.608170        -2.306844
