19
Iteration:   797
 C         1.509684        -0.181796         0.588529
 C         0.071786        -0.230006         0.196601
 C        -1.123378        -0.006304         0.188900
 C        -2.483161         0.007477        -0.414653
 C        -3.131897        -1.301346        -0.123772
 C        -2.583923         0.444183        -1.910441
 O        -2.230923         1.829581        -2.036651
 C        -3.205320         2.704138        -2.527902
 O        -4.387192         2.398589        -2.748633
 H         1.304943         0.840919         1.193867
 H         1.681308        -0.979552         1.352476
 H         2.305940        -0.201667        -0.101741
 H        -3.082212         0.714984         0.100821
 H        -3.448903        -1.350471         0.941593
 H        -3.928820        -1.626655        -0.824799
 H        -2.329501        -2.058350        -0.375442
 H        -1.885806        -0.038258        -2.568159
 H        -3.617018         0.251796        -2.196146
 H        -2.983728         3.789600        -2.567300
