19
Iteration:   627
 C         1.533225        -0.104226         0.482446
 C         0.075642        -0.093162         0.371589
 C        -0.978513        -0.134704        -0.276896
 C        -2.422344        -0.090779        -0.294948
 C        -3.173489        -1.492609        -0.060254
 C        -2.940812         0.577669        -1.496025
 O        -2.460405         1.980455        -1.641362
 C        -3.099359         2.701798        -2.636175
 O        -4.071076         2.313422        -3.264597
 H         1.765106        -1.106570         0.139651
 H         2.046798         0.732874        -0.034728
 H         1.852051        -0.123503         1.610721
 H        -2.739123         0.569680         0.501978
 H        -3.260708        -1.774683         1.004771
 H        -4.264473        -1.404587        -0.362566
 H        -2.540153        -2.297026        -0.479682
 H        -2.814691         0.125683        -2.542445
 H        -4.027456         0.734241        -1.309079
 H        -2.668023         3.705488        -2.759857
