19
Iteration:  2728
 C         1.190857         0.413781         0.744325
 C        -0.188899         0.083895         0.305389
 C        -1.276946        -0.197866        -0.067272
 C        -2.730261        -0.490282        -0.440574
 C        -2.941201        -1.914878        -0.986695
 C        -3.246818         0.525017        -1.564935
 O        -2.537670         1.763678        -1.239313
 C        -2.743006         2.757445        -2.203355
 O        -3.265294         2.631364        -3.304086
 H         1.215643         1.176212         1.554700
 H         1.824256        -0.452748         0.882907
 H         1.565164         1.132629        -0.114290
 H        -3.198210        -0.201604         0.528236
 H        -4.020041        -1.876480        -1.373483
 H        -2.214849        -1.926648        -1.834647
 H        -2.809700        -2.612215        -0.120514
 H        -3.078228         0.177827        -2.593015
 H        -4.332571         0.777993        -1.471845
 H        -2.076778         3.587604        -1.835489
