19
Iteration:   695charge 0 multiplicity 1
 C         1.555036        -0.190720         0.643368
 C         0.103695        -0.173086         0.189840
 C        -1.059966        -0.033677        -0.099057
 C        -2.509340        -0.021990        -0.174402
 C        -3.056639        -1.494370        -0.094599
 C        -2.785231         0.561629        -1.578815
 O        -2.404140         1.939348        -1.906238
 C        -3.171254         2.684259        -2.661080
 O        -4.264419         2.435585        -3.113205
 H         1.521196        -1.003129         1.407296
 H         2.314182        -0.542125        -0.100150
 H         1.767476         0.675415         1.198593
 H        -2.859568         0.562430         0.644903
 H        -2.456065        -2.002616         0.682532
 H        -4.159704        -1.581836         0.100088
 H        -2.665372        -1.963045        -0.995802
 H        -2.211363        -0.065241        -2.311274
 H        -3.880629         0.504936        -1.838560
 H        -2.821471         3.670788        -2.832330
