19
Iteration:  3464charge 0 multiplicity 1
 C         1.313192        -0.242642         1.186122
 C        -0.064721        -0.197189         0.643660
 C        -1.115650        -0.040163         0.028136
 C        -2.456067        -0.177740        -0.604512
 C        -2.845960        -1.763296        -0.905976
 C        -2.650683         0.569607        -1.860972
 O        -2.564416         1.990700        -1.545635
 C        -3.283838         2.886106        -2.297210
 O        -3.914005         2.655512        -3.331775
 H         1.911232        -0.730690         0.470537
 H         1.563268         0.845667         1.260353
 H         1.368151        -0.684117         2.209878
 H        -3.187302         0.196089         0.098688
 H        -3.846428        -1.847854        -1.347134
 H        -2.225055        -2.241985        -1.720364
 H        -2.644327        -2.502086        -0.106370
 H        -2.168755         0.230441        -2.801431
 H        -3.781723         0.369328        -2.149509
 H        -3.313301         3.858065        -1.784833
