19
Iteration:  2447
 C         1.324913         0.060547         0.498058
 C        -0.168672         0.183963         0.168969
 C        -1.340708         0.309654         0.009941
 C        -2.681731        -0.221363        -0.368669
 C        -2.698625        -1.710541        -0.868183
 C        -3.413327         0.412282        -1.556644
 O        -3.585974         1.890051        -1.267468
 C        -2.911259         2.587756        -2.176011
 O        -2.285338         2.272109        -3.187267
 H         1.750013         0.568824        -0.379567
 H         1.498798         0.888122         1.253325
 H         1.616939        -0.886624         0.788547
 H        -3.307172        -0.213445         0.551990
 H        -2.391989        -2.467488        -0.104401
 H        -3.623973        -2.006468        -1.354957
 H        -1.745115        -1.845644        -1.397551
 H        -2.877768         0.427659        -2.521114
 H        -4.425287         0.036653        -1.815255
 H        -3.093277         3.672730        -1.859452
