19
Iteration:  3038
 C         1.317779        -0.171438         1.116290
 C         0.045374        -0.346544         0.370550
 C        -1.015318        -0.262087        -0.116991
 C        -2.401051        -0.214637        -0.505026
 C        -2.809899        -1.674847        -0.892216
 C        -2.780483         0.710774        -1.582205
 O        -2.992950         2.186408        -1.273537
 C        -3.515273         2.814996        -2.354080
 O        -3.429438         2.568264        -3.542046
 H         1.890680        -1.140256         1.280411
 H         1.961116         0.383735         0.483252
 H         1.163963         0.447489         2.117575
 H        -2.964623        -0.050757         0.440694
 H        -3.916542        -1.876402        -0.852003
 H        -2.376073        -2.103362        -1.854051
 H        -2.409082        -2.445985        -0.132018
 H        -2.317192         0.575208        -2.562971
 H        -3.761923         0.301625        -1.892701
 H        -3.826872         3.806542        -2.057495
