19
Iteration:  2332
 C         1.074992         0.911843         0.263872
 C        -0.252699         0.233934        -0.074512
 C        -1.349291        -0.221765        -0.240249
 C        -2.813702        -0.538543        -0.438784
 C        -3.260248        -1.998617        -0.434906
 C        -3.231897         0.390224        -1.697793
 O        -3.328365         1.788937        -1.279472
 C        -2.517961         2.673071        -1.934082
 O        -2.094427         2.384808        -3.028663
 H         1.148269         1.898607         0.791381
 H         1.465611         0.196535         0.960390
 H         1.614704         0.999373        -0.772874
 H        -3.226253         0.008566         0.423466
 H        -3.004050        -2.643561         0.414628
 H        -4.316804        -1.860148        -0.568390
 H        -2.710683        -2.556871        -1.166256
 H        -2.503647         0.315549        -2.571521
 H        -4.137566         0.068119        -2.208864
 H        -2.549912         3.615616        -1.322604
