19
Iteration:  1595charge 0 multiplicity 1
 C         1.360808        -0.013389         0.861003
 C        -0.010041        -0.129819         0.336528
 C        -1.209569        -0.022617         0.153425
 C        -2.458498         0.038033        -0.513115
 C        -3.132874        -1.464902        -0.568849
 C        -2.386595         0.422185        -1.990899
 O        -2.207620         1.878646        -2.060612
 C        -3.238407         2.636134        -2.316229
 O        -4.341401         2.304569        -2.650588
 H         1.866891         0.885233         0.539914
 H         1.202178         0.145472         1.909360
 H         2.172449        -0.833051         0.696643
 H        -3.154556         0.759153        -0.084347
 H        -3.035507        -1.912409         0.392937
 H        -4.218337        -1.347256        -0.887982
 H        -2.429369        -1.921529        -1.297063
 H        -1.513103        -0.061855        -2.522352
 H        -3.385672         0.247538        -2.470464
 H        -3.048764         3.745731        -2.075604
