19
Iteration:  3332
 C         1.234036         0.307398         1.045032
 C        -0.161825         0.065376         0.480406
 C        -1.238886        -0.207169        -0.069854
 C        -2.609755        -0.443516        -0.618802
 C        -2.975985        -1.968793        -0.829776
 C        -2.840258         0.300503        -1.888505
 O        -2.358659         1.708096        -1.649705
 C        -2.943491         2.785268        -2.209385
 O        -3.780772         3.051687        -3.068025
 H         1.733850         1.247659         0.889243
 H         1.141965         0.370913         2.228176
 H         2.019967        -0.440948         0.705872
 H        -3.392847        -0.191764         0.131939
 H        -4.027024        -2.054061        -1.149968
 H        -2.412276        -2.481361        -1.637484
 H        -2.887689        -2.441991         0.161593
 H        -2.261658        -0.178852        -2.724635
 H        -3.942791         0.509008        -2.034012
 H        -2.523673         3.682455        -1.637486
