19
Iteration:  4419charge 0 multiplicity 1
 C         1.435239        -0.140319         1.097148
 C         0.059247        -0.495923         0.565064
 C        -1.018858        -0.526537         0.018169
 C        -2.341238        -0.168426        -0.506299
 C        -3.098342        -1.205833        -1.293870
 C        -2.133623         1.116267        -1.325553
 O        -3.523446         1.789530        -1.319578
 C        -3.809015         2.440145        -2.455079
 O        -3.173138         2.642335        -3.463322
 H         2.138185        -0.288910         0.317264
 H         1.597771         0.923842         1.328692
 H         1.792738        -0.738145         2.033355
 H        -2.935932         0.097018         0.430373
 H        -3.995458        -0.805895        -1.885968
 H        -2.425371        -1.567573        -2.022390
 H        -3.197457        -2.028108        -0.570855
 H        -1.352534         1.852344        -1.115784
 H        -1.908890         0.978419        -2.461810
 H        -4.923417         2.654683        -2.354775
