19
Iteration:  1437
 C         1.109980         0.252402         1.138905
 C        -0.215957         0.200286         0.446502
 C        -1.091251         0.052753        -0.380341
 C        -2.440421        -0.134102        -0.815384
 C        -3.059161        -1.505559        -0.485922
 C        -2.649147         0.144155        -2.343948
 O        -2.279265         1.548795        -2.741249
 C        -3.013943         2.644041        -2.224250
 O        -3.958974         2.566537        -1.492290
 H         0.880540        -0.061866         2.202717
 H         1.619335        -0.561997         0.540697
 H         1.522797         1.211998         1.066807
 H        -2.963021         0.628289        -0.252624
 H        -2.327298        -2.355372        -0.373724
 H        -3.646318        -1.576084         0.434113
 H        -3.830155        -1.803922        -1.234229
 H        -2.029171        -0.493523        -2.971758
 H        -3.693219        -0.009034        -2.577329
 H        -2.617636         3.561676        -2.752653
