19
Iteration:   586charge 0 multiplicity 1
 C         1.555975        -0.082475         0.328936
 C         0.100911        -0.096404         0.034474
 C        -1.124708         0.055904         0.073245
 C        -2.639095        -0.046567        -0.155596
 C        -3.136270        -1.514144        -0.016513
 C        -2.952887         0.506052        -1.624089
 O        -2.533893         1.898548        -1.567325
 C        -3.074451         2.702445        -2.497675
 O        -3.839596         2.326126        -3.388328
 H         2.294090        -0.697726        -0.437059
 H         2.008353         0.891733         0.697686
 H         1.696574        -0.543852         1.239604
 H        -3.139252         0.597153         0.588317
 H        -2.694232        -2.025393         0.831760
 H        -4.245396        -1.609667         0.113460
 H        -2.930138        -2.161746        -0.864952
 H        -2.382347        -0.133129        -2.288656
 H        -4.039073         0.381921        -1.716438
 H        -2.570839         3.644370        -2.238227
