19
Iteration:   453
 C         1.475257         0.103656        -0.016873
 C         0.027866         0.065496        -0.217579
 C        -1.185740         0.036011        -0.031098
 C        -2.650534        -0.119179        -0.059279
 C        -3.222380        -1.645375        -0.031933
 C        -3.165298         0.555486        -1.190456
 O        -2.882313         2.070918        -1.260722
 C        -2.874766         2.606128        -2.486374
 O        -3.133676         2.035791        -3.547144
 H         1.981769         1.090019         0.353410
 H         1.653706        -0.384292         0.957295
 H         1.838697        -0.345952        -0.841450
 H        -3.149640         0.358037         0.860297
 H        -3.054820        -1.924917         1.003716
 H        -4.292953        -1.690052        -0.272656
 H        -2.754312        -2.363871        -0.707248
 H        -3.024986         0.147947        -2.219737
 H        -4.241597         0.605815        -1.059598
 H        -2.759300         3.800988        -2.392758
