19
Iteration:  2273
 C         0.877808         1.082610         0.057463
 C        -0.329175         0.227549        -0.151395
 C        -1.421960        -0.232242        -0.248767
 C        -2.852932        -0.532442        -0.311043
 C        -3.297787        -2.043775        -0.506372
 C        -3.334489         0.285096        -1.523423
 O        -3.174832         1.709810        -1.213113
 C        -2.440835         2.632607        -1.957702
 O        -1.799404         2.453127        -2.990411
 H         0.801269         1.411824         1.174143
 H         1.817903         0.609304        -0.282255
 H         0.827550         1.935200        -0.712565
 H        -3.365273        -0.039879         0.505089
 H        -3.986456        -2.313222         0.336679
 H        -3.770088        -2.284602        -1.498003
 H        -2.395007        -2.686749        -0.616390
 H        -2.771916         0.126145        -2.393089
 H        -4.431734         0.205444        -1.651113
 H        -2.721542         3.616216        -1.533369
