19
Iteration:  2939
 C         1.304010        -0.273637         0.826191
 C        -0.046161        -0.158067         0.498748
 C        -1.205699        -0.137842         0.157728
 C        -2.492027        -0.245068        -0.489627
 C        -2.770543        -1.755973        -0.695500
 C        -2.490418         0.694654        -1.759848
 O        -2.901043         2.037553        -1.384737
 C        -3.627982         2.778334        -2.310183
 O        -3.437688         2.700796        -3.497985
 H         1.889299        -0.536345        -0.097215
 H         1.633416         0.635764         1.226528
 H         1.637497        -1.021645         1.663424
 H        -3.335693         0.291609        -0.008614
 H        -3.653659        -1.936723        -1.418249
 H        -1.989584        -2.464611        -1.072550
 H        -3.268731        -2.195541         0.238362
 H        -1.508708         0.791123        -2.341114
 H        -3.128949         0.369572        -2.573236
 H        -4.134262         3.673421        -1.859111
