19
Iteration:   662charge 0 multiplicity 1
 C         1.634558        -0.101982         0.648380
 C         0.221654        -0.279029         0.099196
 C        -0.999987        -0.111055         0.046544
 C        -2.438470         0.011619        -0.209795
 C        -3.159545        -1.379606        -0.186175
 C        -2.978309         0.585496        -1.556382
 O        -2.469877         1.907404        -1.808102
 C        -3.145561         2.663478        -2.639873
 O        -4.204409         2.383509        -3.209085
 H         1.963471        -1.193537         0.984725
 H         2.551501         0.272222         0.065388
 H         1.599010         0.437687         1.556774
 H        -2.766538         0.710684         0.510590
 H        -3.077435        -1.807925         0.816328
 H        -4.159270        -1.564026        -0.682946
 H        -2.575209        -1.997555        -0.877724
 H        -2.943680        -0.111551        -2.435544
 H        -4.043375         0.603156        -1.202343
 H        -2.600490         3.562365        -2.537411
