19
Iteration:  2240
 C         0.829545         1.034937        -0.117289
 C        -0.444051         0.348535        -0.159013
 C        -1.472281        -0.233862        -0.021694
 C        -2.901510        -0.511975        -0.316241
 C        -3.140693        -2.045421        -0.630919
 C        -3.316044         0.392188        -1.539297
 O        -3.240069         1.820168        -1.238542
 C        -2.363978         2.614360        -1.886870
 O        -1.797999         2.229979        -2.881276
 H         1.398721         1.100915         0.826190
 H         1.550597         0.591618        -0.773229
 H         0.763997         2.136469        -0.202045
 H        -3.586282        -0.170136         0.442542
 H        -3.945553        -2.578684        -0.095784
 H        -3.211997        -2.268729        -1.716304
 H        -2.242833        -2.561003        -0.206915
 H        -2.792020         0.207131        -2.425915
 H        -4.381217         0.145946        -1.727830
 H        -2.420566         3.629279        -1.761810
