19
Iteration:  1049charge 0 multiplicity 1
 C         1.179508         0.265888         0.821147
 C        -0.159875         0.228200         0.366505
 C        -1.214693         0.159708        -0.220194
 C        -2.592558        -0.115356        -0.750604
 C        -3.056027        -1.617598        -0.393190
 C        -2.784986         0.114912        -2.286732
 O        -2.232298         1.400905        -2.639534
 C        -3.002276         2.625601        -2.366481
 O        -3.796068         2.709997        -1.439310
 H         1.057393        -0.287900         1.831716
 H         1.888761        -0.266524         0.181169
 H         1.527683         1.379896         1.141970
 H        -3.146563         0.657012        -0.216714
 H        -3.931023        -1.638555         0.271205
 H        -3.452022        -2.215689        -1.250732
 H        -2.244299        -2.223444         0.034159
 H        -2.338420        -0.557187        -2.991446
 H        -3.830949         0.181862        -2.492998
 H        -2.716738         3.493089        -2.914381
