19
Iteration:   301charge 0 multiplicity 1
 C         1.252566         0.421807        -0.590823
 C        -0.108045         0.041990        -0.322239
 C        -1.335643         0.047247        -0.138002
 C        -2.781935        -0.074728        -0.049344
 C        -3.224912        -1.536587         0.136669
 C        -3.485943         0.573423        -1.150942
 O        -3.234906         1.961942        -1.203791
 C        -2.646074         2.418012        -2.288187
 O        -2.167873         1.823980        -3.242533
 H         1.839243        -0.096347         0.141303
 H         1.459264         0.371201        -1.666081
 H         1.362752         1.512517        -0.283518
 H        -3.164636         0.433654         0.842417
 H        -3.161309        -1.693331         1.239533
 H        -4.282464        -1.688812        -0.181893
 H        -2.487633        -2.159011        -0.392981
 H        -3.315636         0.199244        -2.228377
 H        -4.562971         0.596027        -0.901347
 H        -2.472704         3.467505        -2.226334
