19
Iteration:  1730charge 0 multiplicity 1
 C         1.467037        -0.172530         0.900722
 C         0.103177         0.003467         0.422067
 C        -1.056665        -0.134204         0.038575
 C        -2.478881        -0.141236        -0.462124
 C        -2.911193        -1.685553        -0.418505
 C        -2.746682         0.537979        -1.793554
 O        -2.598642         2.001743        -1.631732
 C        -3.330286         2.845547        -2.479786
 O        -4.045206         2.457291        -3.367538
 H         2.051094        -1.123066         0.616147
 H         1.998884         0.769048         0.563064
 H         1.436463        -0.181866         1.970276
 H        -3.081244         0.280129         0.385087
 H        -4.032511        -1.800974        -0.381116
 H        -2.537084        -2.412843        -1.127255
 H        -2.391856        -2.000634         0.497874
 H        -2.027499         0.154144        -2.509982
 H        -3.762370         0.335407        -2.132746
 H        -3.142422         3.837570        -2.033458
