19
Iteration:   109
 C         1.202806         0.541577        -0.860504
 C        -0.255867         0.403152        -0.558204
 C        -1.346252        -0.017825        -0.077351
 C        -2.830933        -0.151473        -0.000806
 C        -3.270072        -1.628082         0.322230
 C        -3.572137         0.598235        -1.248769
 O        -3.474818         2.026021        -1.367187
 C        -2.455127         2.397328        -2.243434
 O        -1.776248         1.608653        -2.837826
 H         1.326441         1.241372        -1.948879
 H         1.636597         1.027451        -0.079611
 H         1.574713        -0.388542        -1.130751
 H        -3.143485         0.437910         0.941327
 H        -3.084441        -1.767455         1.373469
 H        -4.328696        -1.799247         0.210583
 H        -2.656480        -2.340287        -0.201623
 H        -3.077795         0.127217        -2.077080
 H        -4.598506         0.333914        -1.131721
 H        -2.488036         3.471279        -2.297892
