19
Iteration:   127charge 0 multiplicity 1
 C         1.111289         0.621652        -0.967242
 C        -0.158726         0.185582        -0.400884
 C        -1.372229         0.075145        -0.182248
 C        -2.828979        -0.051047        -0.006531
 C        -3.282301        -1.551218         0.289088
 C        -3.629773         0.483871        -1.198023
 O        -3.465042         1.934494        -1.321497
 C        -2.439855         2.374278        -2.228563
 O        -1.683719         1.659537        -2.835901
 H         0.933540         1.036467        -1.886325
 H         1.628535         1.472249        -0.334223
 H         1.828048        -0.293096        -0.930691
 H        -3.157198         0.594711         0.800550
 H        -3.280958        -1.769304         1.386374
 H        -4.328446        -1.679903        -0.088139
 H        -2.597754        -2.239407        -0.241163
 H        -3.448061        -0.041082        -2.197244
 H        -4.706960         0.434537        -0.974832
 H        -2.464599         3.528983        -2.303837
