19
Iteration:  4783
 C         1.366936        -0.512417         1.021359
 C         0.014091        -0.205618         0.608378
 C        -1.091939         0.052593         0.065772
 C        -2.405476         0.184031        -0.592377
 C        -3.038774        -1.208184        -0.567738
 C        -2.092488         0.756531        -1.947839
 O        -3.330597         1.045515        -2.753597
 C        -3.772008         2.347435        -2.621724
 O        -3.286391         3.238708        -1.981560
 H         1.978386         0.452610         1.146535
 H         1.327527        -1.029573         1.985314
 H         1.949455        -1.253111         0.378301
 H        -3.047006         0.899200        -0.078794
 H        -4.116031        -1.007862        -0.591173
 H        -2.716987        -1.903773        -1.365077
 H        -2.704803        -1.611690         0.395364
 H        -1.534323         1.781396        -1.717456
 H        -1.517317        -0.024694        -2.494257
 H        -4.745377         2.411914        -3.124728
