19
Iteration:  4064
 C         1.450760        -0.622231         0.971365
 C         0.111714        -0.530115         0.492719
 C        -0.992178        -0.266810         0.082569
 C        -2.331730         0.167380        -0.435962
 C        -3.018346        -0.773960        -1.350995
 C        -2.108512         1.518636        -1.036830
 O        -3.424762         2.090589        -1.253821
 C        -3.892988         2.030702        -2.512057
 O        -3.377769         1.933315        -3.622995
 H         1.647564        -1.665268         1.120895
 H         2.210936        -0.238496         0.210239
 H         1.630470         0.005915         1.822739
 H        -2.926135         0.325417         0.434161
 H        -3.122905        -1.714304        -0.747526
 H        -3.887033        -0.268738        -1.694064
 H        -2.436000        -0.916721        -2.267133
 H        -1.507621         2.192489        -0.422767
 H        -1.701427         1.530319        -2.146594
 H        -4.929669         2.294358        -2.446483
