19
Iteration:   222
 C         1.116124         0.494428        -0.928617
 C        -0.332753         0.442643        -0.430241
 C        -1.474484         0.134875        -0.185480
 C        -2.931837        -0.061420         0.030132
 C        -3.292521        -1.523348         0.241933
 C        -3.488781         0.414809        -1.231662
 O        -3.205105         1.755713        -1.206127
 C        -2.500669         2.410799        -2.203444
 O        -1.754745         1.777197        -2.941955
 H         1.351199        -0.472336        -1.624572
 H         1.353990         1.199748        -1.724314
 H         1.679381         0.685941        -0.044180
 H        -3.306997         0.453616         0.981765
 H        -2.458266        -1.897496         0.871812
 H        -4.114446        -1.504641         0.966567
 H        -3.496305        -2.240981        -0.573668
 H        -2.888586        -0.043748        -2.045514
 H        -4.559800         0.258601        -1.495586
 H        -2.526057         3.496026        -2.075111
