19
Iteration:  4722
 C         1.554994        -0.589553         1.052910
 C         0.212444        -0.415122         0.572878
 C        -0.961527        -0.257040         0.127570
 C        -2.273589         0.171050        -0.456756
 C        -3.302285        -1.075333        -0.746255
 C        -1.998167         1.048744        -1.726488
 O        -3.275230         1.067310        -2.352855
 C        -3.870637         2.258970        -2.742358
 O        -3.575913         3.368729        -2.459298
 H         1.676504         0.117452         1.867218
 H         1.478352        -1.465438         1.767000
 H         2.377421        -0.492861         0.403960
 H        -2.805974         0.889038         0.243966
 H        -4.051444        -0.727311        -1.581775
 H        -2.978611        -2.019642        -1.131910
 H        -3.976721        -1.325308         0.107906
 H        -1.620817         1.969274        -1.464691
 H        -1.300634         0.713963        -2.495043
 H        -4.746446         1.894413        -3.338740
