19
Iteration:   700
 C         1.527160        -0.213623         0.664351
 C         0.137733        -0.154436         0.214307
 C        -1.044382        -0.013298        -0.098763
 C        -2.534393        -0.020467        -0.228132
 C        -3.071567        -1.506906        -0.065080
 C        -2.799288         0.523574        -1.618387
 O        -2.389024         1.952305        -1.887974
 C        -3.159802         2.695147        -2.663718
 O        -4.282206         2.422691        -3.093412
 H         1.547160        -1.049615         1.466481
 H         2.127650        -0.507757        -0.201233
 H         2.073226         0.768379         1.043906
 H        -2.940743         0.722667         0.543809
 H        -2.429002        -2.042274         0.639472
 H        -4.094556        -1.698820         0.173358
 H        -2.674371        -1.973712        -0.992281
 H        -2.213596        -0.012277        -2.339313
 H        -3.825819         0.552187        -1.898753
 H        -2.730540         3.758582        -2.837847
