19
Iteration:   363charge 0 multiplicity 1
 C         1.331687         0.224695        -0.273311
 C        -0.071543         0.222763        -0.273616
 C        -1.249296        -0.045841        -0.146276
 C        -2.668290        -0.104169         0.002844
 C        -3.126950        -1.517618         0.024859
 C        -3.498424         0.578207        -1.146430
 O        -3.180765         2.037864        -1.231860
 C        -2.618864         2.449496        -2.389903
 O        -2.632055         1.922324        -3.455659
 H         1.717266         0.263886         0.839077
 H         1.841178        -0.667175        -0.541307
 H         1.746410         1.055407        -0.709804
 H        -2.968333         0.354745         0.995974
 H        -2.552615        -2.237875         0.617538
 H        -4.085162        -1.562520         0.512621
 H        -3.174580        -1.985387        -0.974389
 H        -3.349214         0.038453        -2.085477
 H        -4.522416         0.483227        -0.828145
 H        -2.033622         3.430270        -2.050314
