19
Iteration:  3748charge 0 multiplicity 1
 C         1.490148        -0.913588         0.919637
 C         0.289754        -0.546994         0.259905
 C        -0.872371        -0.227983         0.106655
 C        -2.213764         0.264733        -0.266800
 C        -2.981611        -0.825857        -1.008730
 C        -2.338089         1.613581        -0.967805
 O        -3.689116         1.745640        -1.438373
 C        -3.922888         2.032479        -2.731910
 O        -3.253174         2.483207        -3.638461
 H         1.621415        -0.182638         1.714856
 H         1.382477        -1.896435         1.553918
 H         2.570676        -0.978177         0.538979
 H        -2.867455         0.435590         0.647902
 H        -4.094034        -0.725622        -0.817997
 H        -2.973473        -0.680965        -2.101402
 H        -2.532211        -1.802316        -0.723034
 H        -1.998310         2.316431        -0.306235
 H        -1.665414         1.639617        -1.840821
 H        -5.017047         1.682440        -2.821067
