19
Iteration:  1819charge 0 multiplicity 1
 C         1.325189         0.001475         0.785098
 C         0.030759        -0.008031         0.324647
 C        -1.109386        -0.039436        -0.034908
 C        -2.462655        -0.295511        -0.279032
 C        -2.793490        -1.793567        -0.601857
 C        -3.019948         0.610133        -1.489514
 O        -2.811643         2.053804        -1.363894
 C        -3.169088         2.813668        -2.511163
 O        -3.590705         2.380076        -3.579904
 H         1.590766        -0.865783         1.535509
 H         2.084611        -0.441228         0.033362
 H         1.648868         0.938600         1.115833
 H        -3.067763        -0.017630         0.610637
 H        -1.938314        -2.423155        -0.279440
 H        -3.660748        -2.147118         0.052366
 H        -3.077043        -1.887849        -1.667067
 H        -2.801498         0.225615        -2.450851
 H        -4.116147         0.613073        -1.402464
 H        -3.063782         3.841488        -2.412201
