19
Iteration:  1659
 C         1.425251        -0.084316         0.812823
 C        -0.010046        -0.007715         0.500799
 C        -1.142689        -0.205672         0.060387
 C        -2.436054        -0.128142        -0.526578
 C        -3.066235        -1.515101        -0.501352
 C        -2.485486         0.564751        -1.878776
 O        -2.343513         2.067182        -1.742608
 C        -3.255539         2.719835        -2.442771
 O        -4.248737         2.243406        -3.015135
 H         1.961590        -0.116928        -0.116611
 H         1.611991         0.877179         1.300962
 H         1.702471        -1.044032         1.422031
 H        -3.087646         0.466241         0.085309
 H        -2.728221        -2.154192        -1.321945
 H        -3.127128        -1.989883         0.527263
 H        -4.147223        -1.213449        -0.550982
 H        -1.691766         0.259265        -2.611493
 H        -3.510593         0.317367        -2.264339
 H        -3.084843         3.737207        -2.277129
