19
Iteration:  3742
 C         1.553685        -0.926347         0.952506
 C         0.277687        -0.557844         0.242523
 C        -0.897030        -0.189721         0.123352
 C        -2.276616         0.243535        -0.257906
 C        -2.990671        -0.834115        -1.002361
 C        -2.281010         1.555378        -0.970156
 O        -3.668762         1.737944        -1.439570
 C        -3.950412         2.087430        -2.732983
 O        -3.277343         2.476251        -3.649638
 H         1.451437        -0.205245         1.825264
 H         1.405859        -1.788423         1.493518
 H         2.428622        -0.888775         0.354387
 H        -2.776694         0.458572         0.674438
 H        -4.072651        -0.707717        -1.029569
 H        -2.627717        -0.700524        -2.058537
 H        -2.544707        -1.764048        -0.713556
 H        -1.907055         2.455210        -0.280910
 H        -1.718663         1.621883        -1.925054
 H        -4.966005         1.774727        -2.823046
