19
Iteration:  3658
 C         1.466992        -0.720561         0.846122
 C         0.100493        -0.317300         0.578479
 C        -1.028154        -0.097819         0.219592
 C        -2.401113         0.062105        -0.376872
 C        -2.742932        -1.339913        -1.025034
 C        -2.262429         1.087591        -1.395060
 O        -3.462754         2.036649        -1.304381
 C        -3.870799         2.494763        -2.494666
 O        -3.402373         2.439306        -3.635704
 H         1.752408        -0.953748         1.935992
 H         1.651439        -1.651985         0.106912
 H         2.294714         0.048005         0.650447
 H        -3.140178         0.420298         0.414173
 H        -3.270010        -1.161533        -1.949200
 H        -1.883799        -1.897611        -1.489642
 H        -3.485774        -1.910011        -0.435016
 H        -1.393818         1.761695        -1.342603
 H        -2.308482         0.711761        -2.365876
 H        -4.761154         3.229599        -2.346558
