19
Iteration:  4557charge 0 multiplicity 1
 C         1.451720        -0.748745         0.801337
 C         0.044379        -0.285381         0.679793
 C        -1.090779        -0.086078         0.313577
 C        -2.368748         0.105028        -0.299174
 C        -2.702776        -1.165752        -0.995392
 C        -2.294703         1.205633        -1.318290
 O        -3.614569         1.245669        -1.881984
 C        -3.912339         2.341793        -2.633772
 O        -3.150101         3.091794        -3.227097
 H         1.362404        -1.890957         1.080384
 H         1.986855        -0.968234        -0.204840
 H         2.011814        -0.261945         1.578850
 H        -3.189231         0.418295         0.345229
 H        -3.816189        -1.314859        -0.900840
 H        -2.417257        -1.144753        -2.121093
 H        -1.989711        -1.869378        -0.451816
 H        -1.946382         2.109407        -0.742250
 H        -1.587735         1.060068        -2.109943
 H        -4.941506         2.302156        -2.942326
