19
Iteration:  4002
 C         1.450270        -0.393748         0.940242
 C         0.153552        -0.406449         0.289821
 C        -0.946983        -0.300303        -0.248715
 C        -2.433735        -0.008891        -0.381536
 C        -3.257787        -1.015695        -1.272275
 C        -2.246055         1.458332        -0.928162
 O        -3.473381         2.218330        -1.251555
 C        -3.684001         2.377013        -2.541374
 O        -3.165032         1.677423        -3.398180
 H         2.093230        -1.200051         0.595438
 H         2.052573         0.511009         0.637109
 H         1.335325        -0.699796         2.050447
 H        -2.972632         0.005077         0.628105
 H        -4.299558        -1.273361        -1.089261
 H        -3.289864        -0.728699        -2.399494
 H        -2.694258        -1.928437        -1.340659
 H        -1.737507         2.048160        -0.170658
 H        -1.556173         1.360510        -1.723519
 H        -4.371961         3.260527        -2.724500
