19
Iteration:  1123
 C         1.056214         0.716174         0.694881
 C        -0.245840         0.235310         0.257894
 C        -1.317311         0.098261        -0.306409
 C        -2.709076        -0.218961        -0.846745
 C        -3.284230        -1.664370        -0.432956
 C        -2.857965         0.128416        -2.348600
 O        -2.098250         1.410459        -2.566782
 C        -2.639590         2.489349        -2.052810
 O        -3.609719         2.502192        -1.314831
 H         0.994569         1.421616         1.437983
 H         1.532901        -0.156147         1.082149
 H         1.727688         1.033665        -0.145450
 H        -3.295328         0.616101        -0.410925
 H        -3.381507        -1.747702         0.635631
 H        -4.284324        -1.812256        -0.799755
 H        -2.710128        -2.495879        -0.856852
 H        -2.341792        -0.465054        -3.115123
 H        -3.915800         0.316945        -2.610270
 H        -2.226373         3.494572        -2.309033
