19
Iteration:  1878charge 0 multiplicity 1
 C         1.327688         0.211644         0.548228
 C        -0.025536        -0.023328         0.263214
 C        -1.225932         0.033122         0.054695
 C        -2.615509        -0.242593        -0.289651
 C        -2.954440        -1.732919        -0.670492
 C        -3.002912         0.490553        -1.558176
 O        -2.941784         1.905547        -1.248671
 C        -3.020514         2.749466        -2.361879
 O        -3.212101         2.313457        -3.485110
 H         1.332003         0.498912         1.582288
 H         1.942281        -0.596754         0.230982
 H         1.886308         1.076575         0.001194
 H        -3.257392         0.135886         0.580400
 H        -3.187522        -2.008429        -1.704811
 H        -2.212429        -2.384480        -0.207987
 H        -3.871556        -2.058873        -0.147869
 H        -2.338256         0.214444        -2.434035
 H        -4.047295         0.232330        -1.763199
 H        -2.795409         3.787192        -1.864399
