19
Iteration:   612
 C         1.456276        -0.135154         0.406960
 C         0.059972         0.001963         0.259492
 C        -1.072058        -0.208566        -0.147406
 C        -2.478363        -0.097607        -0.264404
 C        -3.059498        -1.465922        -0.012823
 C        -2.984711         0.634886        -1.578970
 O        -2.474907         1.973364        -1.607951
 C        -3.095672         2.679328        -2.563932
 O        -3.974789         2.296750        -3.303566
 H         1.874132        -0.852579        -0.207850
 H         1.965352         0.802150         0.202021
 H         1.792738        -0.299158         1.498326
 H        -2.767291         0.528431         0.659336
 H        -2.905247        -1.675756         1.066870
 H        -4.116937        -1.471839        -0.260097
 H        -2.723679        -2.313368        -0.641303
 H        -2.535242         0.038908        -2.376360
 H        -4.058148         0.561058        -1.647510
 H        -2.467838         3.685415        -2.545829
