19
Iteration:  4706
 C         1.505592        -0.650519         1.148958
 C         0.222369        -0.333111         0.476691
 C        -0.945808        -0.331236         0.037638
 C        -2.251733         0.076723        -0.399134
 C        -3.245300        -0.981615        -0.756837
 C        -2.072330         1.089622        -1.556453
 O        -3.308097         1.123383        -2.365756
 C        -3.920002         2.244087        -2.798902
 O        -3.560428         3.328113        -2.539276
 H         1.834388         0.026553         1.993485
 H         1.677719        -1.687013         1.311800
 H         2.281389        -0.483443         0.296979
 H        -2.626377         0.644048         0.478066
 H        -3.859649        -0.755392        -1.553752
 H        -2.523969        -1.833733        -0.887571
 H        -3.864452        -1.046307         0.126934
 H        -1.773634         2.176552        -1.194262
 H        -1.206975         0.617268        -2.109889
 H        -4.795310         1.980562        -3.449216
