19
Iteration:   468charge 0 multiplicity 1
 C         1.457873         0.099387         0.012477
 C         0.043845         0.008625        -0.162906
 C        -1.143020        -0.008630         0.082833
 C        -2.565433        -0.120999        -0.065244
 C        -3.198190        -1.497740        -0.044332
 C        -3.215899         0.608982        -1.325961
 O        -2.865090         1.951553        -1.254037
 C        -2.935908         2.584337        -2.455878
 O        -3.209364         2.092120        -3.558884
 H         1.644816         1.089462        -0.200428
 H         1.805316        -0.324914         0.958651
 H         2.159068        -0.517866        -0.667164
 H        -2.979015         0.431196         0.827713
 H        -3.386013        -1.851217         0.979423
 H        -4.184405        -1.429571        -0.582653
 H        -2.568354        -2.269971        -0.534591
 H        -2.807440         0.191179        -2.222578
 H        -4.340547         0.488858        -1.325180
 H        -2.681942         3.632302        -2.360370
