19
Iteration:   936charge 0 multiplicity 1
 C         1.309909        -0.017117         0.809867
 C        -0.008534         0.086308         0.311348
 C        -1.079982        -0.002101        -0.232343
 C        -2.528086        -0.124319        -0.597848
 C        -3.172173        -1.456934        -0.136991
 C        -2.718077         0.357796        -2.210775
 O        -2.093698         1.753745        -2.364518
 C        -3.075501         2.641819        -2.398187
 O        -4.235448         2.434998        -2.089484
 H         2.093196        -0.514646         0.290393
 H         1.619155         1.062139         1.063838
 H         1.323557        -0.561551         1.916224
 H        -3.143608         0.756746        -0.247649
 H        -3.200437        -1.387650         0.956102
 H        -4.201983        -1.459003        -0.506076
 H        -2.658698        -2.280797        -0.635789
 H        -2.115346        -0.341167        -2.818647
 H        -3.809507         0.500888        -2.442285
 H        -2.589621         3.608082        -2.491132
