19
Iteration:  3741
 C         1.561395        -0.923823         0.964392
 C         0.274157        -0.560288         0.240176
 C        -0.901137        -0.180901         0.124394
 C        -2.286871         0.239011        -0.251097
 C        -2.988517        -0.835360        -1.008236
 C        -2.267643         1.550476        -0.971942
 O        -3.663650         1.737846        -1.438104
 C        -3.958478         2.094846        -2.732405
 O        -3.279986         2.475535        -3.651076
 H         1.451612        -0.226067         1.804475
 H         1.410382        -1.803061         1.471159
 H         2.405843        -0.866134         0.307171
 H        -2.752836         0.453451         0.687763
 H        -4.098978        -0.720252        -1.051573
 H        -2.566123        -0.719245        -2.026815
 H        -2.572884        -1.779507        -0.706199
 H        -1.924870         2.446830        -0.310728
 H        -1.706846         1.609752        -1.942436
 H        -4.979551         1.805526        -2.839133
