19
Iteration:  1780
 C         1.414355        -0.109689         0.898828
 C         0.085571        -0.057285         0.306799
 C        -1.058239         0.011222        -0.097492
 C        -2.497232        -0.099588        -0.347295
 C        -2.762874        -1.621060        -0.503768
 C        -3.024999         0.498746        -1.714599
 O        -2.774707         1.961388        -1.475704
 C        -3.180619         2.772155        -2.432839
 O        -3.784073         2.374036        -3.427658
 H         1.497464        -1.091090         1.320789
 H         2.180381         0.131943         0.192996
 H         1.531483         0.476305         1.885742
 H        -3.093054         0.354583         0.465258
 H        -3.045149        -2.187614         0.387286
 H        -3.655679        -1.741917        -1.171513
 H        -1.971906        -2.117586        -1.089585
 H        -2.573100         0.167907        -2.717669
 H        -4.120760         0.346464        -1.682972
 H        -2.747956         3.799492        -2.099878
