19
Iteration:  3411
 C         1.185357        -0.085678         1.042881
 C        -0.166011        -0.037649         0.509611
 C        -1.322416        -0.124173         0.198324
 C        -2.560384        -0.389092        -0.573372
 C        -2.641065        -1.837592        -1.006361
 C        -2.882767         0.659763        -1.694713
 O        -2.349235         2.060033        -1.565454
 C        -2.947133         2.868012        -2.518351
 O        -4.000153         2.595884        -3.079495
 H         1.996063        -0.090901         0.247129
 H         1.349032         0.568017         1.886839
 H         1.099016        -1.063031         1.614028
 H        -3.391652        -0.430023         0.185838
 H        -3.611237        -2.204390        -1.261888
 H        -2.017640        -2.086677        -1.862049
 H        -2.316778        -2.566217        -0.267682
 H        -2.387660         0.367374        -2.598574
 H        -3.987972         0.812930        -1.943082
 H        -2.354643         3.806422        -2.805340
