19
Iteration:  3311
 C         1.040668         0.405645         0.973840
 C        -0.198153         0.068245         0.390965
 C        -1.216783        -0.425789        -0.080377
 C        -2.535485        -0.534574        -0.603110
 C        -2.999402        -1.995457        -0.676036
 C        -2.702295         0.355408        -1.967608
 O        -2.419349         1.754906        -1.637639
 C        -2.903142         2.916072        -2.163656
 O        -3.744232         3.008710        -3.035051
 H         1.383940         1.489719         0.941049
 H         1.031119         0.068759         2.093920
 H         1.793908        -0.229468         0.394612
 H        -3.125939         0.115861         0.125582
 H        -4.079268        -2.130757        -0.740378
 H        -2.651199        -2.519480        -1.581303
 H        -2.822300        -2.578119         0.190368
 H        -1.889355         0.122134        -2.646049
 H        -3.759105         0.386832        -2.385074
 H        -2.307692         3.824795        -1.756200
