19
Iteration:  3719charge 0 multiplicity 1
 C         1.508714        -0.858629         0.868675
 C         0.191569        -0.550105         0.463438
 C        -0.884005        -0.134852         0.130822
 C        -2.257823         0.217545        -0.209109
 C        -2.905490        -0.975107        -1.068671
 C        -2.272038         1.472008        -1.082266
 O        -3.598090         1.790787        -1.495492
 C        -4.012596         2.213982        -2.659238
 O        -3.312123         2.438366        -3.616460
 H         1.644168        -0.416355         1.894294
 H         1.602724        -1.866331         1.092503
 H         2.256173        -0.542357         0.164370
 H        -2.925149         0.342509         0.617058
 H        -3.742074        -0.390302        -1.520566
 H        -2.271924        -1.376818        -1.858834
 H        -3.199605        -1.805039        -0.447677
 H        -1.749527         2.365917        -0.580405
 H        -1.657329         1.227852        -2.013766
 H        -5.052784         2.401365        -2.525679
