19
Iteration:  3833
 C         1.501316        -0.974508         0.696043
 C         0.221785        -0.371595         0.247316
 C        -0.949840        -0.008672         0.224691
 C        -2.382351         0.232362        -0.217985
 C        -2.801676        -0.978937        -1.022073
 C        -2.531813         1.608224        -0.856904
 O        -3.839762         1.845917        -1.398904
 C        -3.834894         2.206021        -2.735798
 O        -2.962970         2.159791        -3.586334
 H         2.374021        -0.285827         0.527076
 H         1.452985        -1.172145         1.822342
 H         1.450186        -1.812685         0.058804
 H        -2.947702         0.198425         0.726610
 H        -3.853617        -1.295994        -0.989023
 H        -2.515079        -0.877026        -2.089281
 H        -2.177987        -1.897622        -0.923972
 H        -2.196798         2.533901        -0.227760
 H        -1.851965         1.557278        -1.740861
 H        -4.798032         2.629856        -3.062783
