19
Iteration:  2301
 C         0.938010         1.066871         0.149691
 C        -0.303319         0.225550        -0.034069
 C        -1.320874        -0.320014        -0.301453
 C        -2.759233        -0.511498        -0.462538
 C        -3.321144        -1.914593        -0.427036
 C        -3.346519         0.297246        -1.655351
 O        -3.202067         1.666341        -1.196631
 C        -2.483516         2.611124        -1.937939
 O        -1.928633         2.461363        -3.009422
 H         0.818937         1.656412         1.009567
 H         1.788096         0.342062         0.302656
 H         1.161494         1.376708        -0.816302
 H        -3.208475         0.125858         0.338393
 H        -3.758684        -2.148625         0.516667
 H        -4.111929        -2.043467        -1.175692
 H        -2.514577        -2.575826        -0.770403
 H        -2.839760         0.261396        -2.661703
 H        -4.447246         0.202995        -1.698990
 H        -2.815824         3.521011        -1.347762
