19
Iteration:  1545charge 0 multiplicity 1
 C         1.286801        -0.019247         0.990403
 C        -0.081717         0.088606         0.539222
 C        -1.104439         0.073390        -0.100224
 C        -2.462667        -0.144732        -0.742924
 C        -3.078467        -1.528346        -0.438857
 C        -2.505257         0.363825        -2.216256
 O        -2.117846         1.817884        -2.228251
 C        -3.165180         2.672036        -2.353910
 O        -4.369984         2.390909        -2.242360
 H         1.853066         0.925696         1.300572
 H         1.497147        -0.769800         1.818652
 H         1.779283        -0.331547         0.111689
 H        -3.272143         0.469556        -0.291878
 H        -4.142227        -1.256331        -0.164223
 H        -3.026377        -2.078107        -1.367284
 H        -2.588383        -1.965115         0.465951
 H        -1.781418        -0.197631        -2.796147
 H        -3.477300         0.356005        -2.660372
 H        -2.930720         3.672751        -2.645834
