19
Iteration:   378
 C         1.556027         0.241594        -0.205541
 C        -0.009716         0.043745        -0.186474
 C        -1.263385         0.104199        -0.170411
 C        -2.787788        -0.065356        -0.000686
 C        -3.169077        -1.611266         0.031307
 C        -3.556068         0.611475        -1.129628
 O        -3.164104         1.991422        -1.221545
 C        -2.607741         2.451927        -2.408156
 O        -2.718939         1.971427        -3.507634
 H         1.873545         0.614705         0.855263
 H         2.004402        -0.753683        -0.500876
 H         1.818135         0.999394        -1.048942
 H        -3.056928         0.485502         0.970407
 H        -2.263846        -2.061890         0.422636
 H        -4.133282        -1.890242         0.528225
 H        -3.328247        -1.927186        -1.009520
 H        -3.324291         0.152034        -2.147658
 H        -4.664617         0.548769        -0.998821
 H        -1.953084         3.335342        -2.209493
