19
Iteration:  3181charge 0 multiplicity 1
 C         1.128457         0.298524         0.716728
 C        -0.232232        -0.099185         0.465012
 C        -1.422547        -0.282695         0.175600
 C        -2.686268        -0.407681        -0.513455
 C        -2.867797        -1.835706        -0.969113
 C        -2.731665         0.465250        -1.747077
 O        -2.391875         1.876298        -1.383660
 C        -2.866069         2.782732        -2.252364
 O        -3.705400         2.728532        -3.143607
 H         1.426718         0.682905         1.760696
 H         1.963235        -0.291212         0.457704
 H         1.192773         1.269539         0.059728
 H        -3.540470         0.025714         0.079861
 H        -3.834104        -2.088069        -1.438501
 H        -1.975876        -2.052108        -1.631125
 H        -2.666362        -2.436351        -0.081284
 H        -2.094172         0.267901        -2.571545
 H        -3.734477         0.434793        -2.217510
 H        -2.267040         3.688418        -2.105499
