19
Iteration:  1978
 C         1.197188         0.660867         0.209594
 C        -0.143805         0.169084         0.143233
 C        -1.323583        -0.104489         0.020560
 C        -2.733164        -0.387565        -0.392398
 C        -3.081644        -1.874084        -0.414273
 C        -3.166691         0.314915        -1.588992
 O        -3.196441         1.710152        -1.255358
 C        -2.719796         2.623837        -2.146347
 O        -2.555107         2.570263        -3.347499
 H         1.288301         1.723483         0.095152
 H         1.554367         0.420997         1.217578
 H         1.898568         0.002752        -0.499717
 H        -3.395691         0.045433         0.432697
 H        -3.512363        -2.222643         0.520695
 H        -3.765903        -2.080880        -1.248556
 H        -2.256829        -2.497921        -0.749282
 H        -2.596389         0.119711        -2.538074
 H        -4.201374        -0.005558        -1.808930
 H        -2.534426         3.410195        -1.385391
