19
Iteration:  2584
 C         1.219861         0.496712         0.508961
 C        -0.115099         0.089977         0.122577
 C        -1.257701        -0.287815        -0.031319
 C        -2.666605        -0.470228        -0.446805
 C        -3.112956        -1.999557        -0.692387
 C        -3.009525         0.524259        -1.661526
 O        -3.150343         1.826016        -1.129358
 C        -2.945758         2.769915        -2.135506
 O        -2.694780         2.640735        -3.316515
 H         2.112522        -0.072546         0.642657
 H         1.595701         0.941837        -0.333075
 H         1.299752         1.235503         1.338751
 H        -3.360931        -0.212573         0.349062
 H        -3.973216        -2.017552        -1.381842
 H        -2.230841        -2.463620        -1.195270
 H        -3.407999        -2.410814         0.310738
 H        -2.111874         0.450293        -2.234266
 H        -3.827383         0.067220        -2.250661
 H        -3.129644         3.768219        -1.707255
