19
Iteration:  3694
 C         1.591508        -0.828689         0.850771
 C         0.168946        -0.443311         0.704729
 C        -0.951005        -0.173909         0.227396
 C        -2.275713         0.211935        -0.408583
 C        -2.888532        -1.177918        -1.078713
 C        -2.200135         1.405858        -1.318180
 O        -3.683116         1.875878        -1.369945
 C        -3.987801         2.375066        -2.585576
 O        -3.300479         2.394586        -3.609800
 H         2.022125        -0.783877         1.813356
 H         1.621035        -1.952347         0.517928
 H         2.003984        -0.221666        -0.027427
 H        -3.091313         0.509137         0.270016
 H        -3.567113        -0.804798        -1.903065
 H        -2.090913        -1.873775        -1.353216
 H        -3.443755        -1.764742        -0.276021
 H        -1.636901         2.159669        -0.859695
 H        -1.849931         1.276477        -2.386518
 H        -4.957493         2.929010        -2.455304
