19
Iteration:   990charge 0 multiplicity 1
 C         1.314970         0.092600         0.956410
 C         0.044290         0.016692         0.256599
 C        -1.148903         0.165767        -0.017374
 C        -2.546431        -0.038892        -0.627009
 C        -3.078896        -1.523820        -0.457511
 C        -2.742458         0.225271        -2.133841
 O        -2.338362         1.469436        -2.665341
 C        -3.006009         2.659493        -2.337371
 O        -4.100789         2.693686        -1.803642
 H         1.742460        -0.901395         0.971480
 H         2.028935         0.655668         0.263502
 H         1.365077         0.615884         2.051081
 H        -3.303638         0.683823        -0.215056
 H        -3.769849        -1.470395         0.375799
 H        -3.456364        -1.957367        -1.377562
 H        -2.223638        -2.086295        -0.074463
 H        -2.242520        -0.627110        -2.651917
 H        -3.858988         0.062296        -2.241735
 H        -2.517539         3.484054        -2.908380
