19
Iteration:  2393
 C         1.263003         0.439485         0.272360
 C        -0.247266         0.223442         0.236272
 C        -1.450677         0.048460        -0.024216
 C        -2.793222        -0.445868        -0.373633
 C        -2.835449        -1.974328        -0.702910
 C        -3.402044         0.466063        -1.520749
 O        -3.457109         1.876309        -1.298388
 C        -2.848006         2.721419        -2.258154
 O        -2.074211         2.404509        -3.122161
 H         1.672491         1.446083         0.023703
 H         1.673968         0.320366         1.285644
 H         1.700421        -0.483284        -0.087482
 H        -3.399483        -0.394990         0.551573
 H        -1.907619        -2.388073        -0.183241
 H        -3.688072        -2.548310        -0.246285
 H        -2.878116        -2.135093        -1.806945
 H        -2.749916         0.308965        -2.389506
 H        -4.442523         0.074579        -1.611056
 H        -2.921372         3.802028        -1.982205
