19
Iteration:  2571
 C         1.259896         0.519184         0.564817
 C        -0.035546         0.044736         0.073095
 C        -1.229852        -0.265292        -0.088479
 C        -2.670727        -0.468838        -0.420084
 C        -3.069108        -1.935178        -0.687451
 C        -3.033398         0.443442        -1.647807
 O        -3.281969         1.862071        -1.210328
 C        -2.882546         2.826034        -2.111167
 O        -2.703361         2.578616        -3.287928
 H         1.684607        -0.449443         0.671241
 H         1.744043         1.276638        -0.024137
 H         1.087094         0.934657         1.535429
 H        -3.202900        -0.023965         0.434836
 H        -4.078617        -2.003568        -1.126835
 H        -2.402723        -2.553919        -1.377317
 H        -3.122435        -2.553756         0.231924
 H        -2.332720         0.517598        -2.506999
 H        -3.997198         0.246615        -2.098384
 H        -2.886543         3.822384        -1.594997
