19
Iteration:   748
 C         1.495648        -0.360993         0.630083
 C         0.088090         0.079069         0.422523
 C        -1.045309         0.115076        -0.085447
 C        -2.455344         0.054091        -0.357475
 C        -3.043502        -1.379972        -0.096969
 C        -2.750993         0.316163        -1.899081
 O        -2.320982         1.785479        -1.946672
 C        -3.267612         2.672794        -2.398261
 O        -4.270648         2.463610        -2.992132
 H         1.807467        -0.349453         1.614892
 H         1.733793        -1.298778         0.076525
 H         2.075786         0.449756         0.020624
 H        -3.008360         0.785025         0.334481
 H        -2.780801        -1.805597         0.890129
 H        -4.174037        -1.184605        -0.085311
 H        -2.819533        -2.119097        -0.890112
 H        -2.056120        -0.274660        -2.584427
 H        -3.837566         0.301663        -2.227852
 H        -2.953847         3.792480        -2.355920
