19
Iteration:  1928charge 0 multiplicity 1
 C         1.262859         0.408646         0.357407
 C        -0.192729         0.176791         0.169214
 C        -1.334487        -0.193340         0.119558
 C        -2.643444        -0.411122        -0.380484
 C        -2.990518        -1.911690        -0.423665
 C        -3.031015         0.446643        -1.624969
 O        -2.981716         1.912669        -1.237425
 C        -2.950734         2.745282        -2.264129
 O        -2.861105         2.496655        -3.467979
 H         1.409074         1.365857         0.987844
 H         1.837810        -0.510509         0.797874
 H         1.671675         0.513674        -0.604797
 H        -3.223524        -0.063713         0.456586
 H        -4.105404        -1.887751        -0.441957
 H        -2.508915        -2.486062        -1.273296
 H        -2.635612        -2.557466         0.411588
 H        -2.436870         0.250477        -2.487485
 H        -4.105021         0.249602        -1.900854
 H        -3.065622         3.679645        -1.730056
