19
Iteration:  4104
 C         1.572879        -0.927711         0.978166
 C         0.115974        -0.550285         0.696632
 C        -0.975886        -0.125348         0.248885
 C        -2.242857         0.263736        -0.390704
 C        -2.736913        -0.903533        -1.313016
 C        -2.213039         1.624811        -1.175079
 O        -3.570977         2.082839        -1.306672
 C        -4.025469         2.210299        -2.629931
 O        -3.492998         2.000443        -3.700283
 H         1.508375        -1.948023         1.572113
 H         2.084472        -1.168354         0.054980
 H         2.199120        -0.130589         1.484430
 H        -3.031320         0.451041         0.417608
 H        -2.052323        -1.789021        -1.330485
 H        -3.676544        -1.393306        -1.069554
 H        -2.674213        -0.727639        -2.429772
 H        -1.750127         2.347818        -0.541586
 H        -1.676514         1.502816        -2.112769
 H        -5.091232         2.643039        -2.548356
