19
Iteration:  2530charge 0 multiplicity 1
 C         1.282013         0.322010         0.700509
 C        -0.066597         0.060255         0.168046
 C        -1.197118         0.016766        -0.407285
 C        -2.607305        -0.320679        -0.507246
 C        -2.897834        -1.862121        -0.631349
 C        -3.395073         0.404021        -1.609689
 O        -3.324851         1.821261        -1.219437
 C        -2.956254         2.719518        -2.142578
 O        -2.545262         2.539464        -3.273690
 H         1.963991        -0.508986         0.404674
 H         1.771116         1.342014         0.630943
 H         1.280469         0.090598         1.847039
 H        -3.087274        -0.026225         0.431935
 H        -3.842126        -2.030975        -0.140356
 H        -2.908323        -2.097248        -1.720807
 H        -1.998713        -2.432301        -0.390337
 H        -2.932664         0.280115        -2.570392
 H        -4.451479         0.087821        -1.488715
 H        -3.023453         3.684223        -1.599886
