19
Iteration:   969
 C         1.330824         0.000536         0.913796
 C         0.044942         0.170321         0.237722
 C        -1.112688         0.048968        -0.167267
 C        -2.522992        -0.009880        -0.564192
 C        -3.112293        -1.400434        -0.433993
 C        -2.726888         0.234609        -2.091689
 O        -2.250830         1.507970        -2.511977
 C        -3.047219         2.524689        -2.355778
 O        -4.186130         2.656867        -1.914657
 H         1.871957        -0.905786         0.660958
 H         2.022385         0.897702         0.696347
 H         0.972661         0.108697         2.133995
 H        -3.005014         0.841427         0.012406
 H        -3.778295        -1.492527         0.433711
 H        -3.676469        -1.502821        -1.352028
 H        -2.347642        -2.181480        -0.307874
 H        -2.161924        -0.571016        -2.639327
 H        -3.804431         0.093233        -2.360812
 H        -2.568113         3.481788        -2.549721
