19
Iteration:  4771
 C         1.391849        -0.494057         1.051382
 C         0.010545        -0.320181         0.622315
 C        -1.076333        -0.076558         0.107723
 C        -2.369239         0.221394        -0.492634
 C        -3.070190        -1.165288        -0.556876
 C        -2.089968         0.827876        -1.939279
 O        -3.293618         1.067545        -2.756299
 C        -3.804044         2.278109        -2.597501
 O        -3.361119         3.334433        -2.100242
 H         2.023677         0.445295         1.172127
 H         1.546666        -1.088029         1.931778
 H         1.801851        -0.995569         0.072183
 H        -2.839765         0.920799         0.153001
 H        -4.105501        -1.346690        -0.729674
 H        -2.543320        -1.576754        -1.457344
 H        -2.867193        -1.837204         0.289928
 H        -1.289343         1.702882        -2.038111
 H        -1.618296         0.068125        -2.603851
 H        -4.782366         2.257323        -3.061587
