19
Iteration:   361
 C         1.310449         0.224562        -0.258660
 C        -0.069822         0.240579        -0.287889
 C        -1.249209        -0.057610        -0.143586
 C        -2.658488        -0.098776         0.000527
 C        -3.119822        -1.524768         0.028956
 C        -3.489077         0.584224        -1.143223
 O        -3.181207         2.037045        -1.235290
 C        -2.609274         2.447672        -2.377893
 O        -2.624269         1.917153        -3.450298
 H         1.659307         0.225057         0.736314
 H         1.788766        -0.698184        -0.599629
 H         1.711201         1.100729        -0.738665
 H        -2.925350         0.345521         0.933500
 H        -2.560217        -2.235063         0.647199
 H        -4.141896        -1.517328         0.451613
 H        -3.208181        -1.997054        -0.960902
 H        -3.345411         0.059992        -2.045849
 H        -4.537320         0.458765        -0.831802
 H        -2.134400         3.426167        -2.085781
