19
Iteration:  4670charge 0 multiplicity 1
 C         1.529280        -0.800740         1.136538
 C         0.248688        -0.451751         0.399432
 C        -0.855645        -0.131165         0.035378
 C        -2.342439         0.141636        -0.385101
 C        -3.093223        -1.214818        -0.603841
 C        -2.288571         1.306242        -1.392510
 O        -3.319204         1.142793        -2.363411
 C        -3.929794         2.272744        -2.920640
 O        -3.493807         3.369178        -2.689688
 H         1.569513        -0.535237         2.169098
 H         1.835833        -1.873599         0.973982
 H         2.292604        -0.135654         0.574803
 H        -2.790861         0.533307         0.492734
 H        -3.820638        -1.335720        -1.430794
 H        -2.447982        -2.047236        -0.730753
 H        -3.583130        -1.489508         0.317068
 H        -2.418419         2.220478        -0.871621
 H        -1.340386         1.306520        -1.986012
 H        -4.742745         1.938128        -3.543282
