19
Iteration:  3838
 C         1.473505        -0.952290         0.655519
 C         0.192754        -0.371230         0.276790
 C        -0.968388        -0.000922         0.252015
 C        -2.361866         0.180918        -0.176566
 C        -2.773979        -1.013820        -1.041385
 C        -2.458329         1.597296        -0.851375
 O        -3.859775         1.873683        -1.377640
 C        -3.827767         2.230175        -2.768165
 O        -2.971167         2.149666        -3.605960
 H         2.227801        -0.219895         0.419705
 H         1.489149        -1.037703         1.743742
 H         1.476600        -1.919379        -0.000472
 H        -2.945185         0.154167         0.793146
 H        -3.879278        -1.117517        -1.194334
 H        -2.481911        -0.747494        -2.069792
 H        -2.225381        -1.901712        -0.738179
 H        -2.303027         2.426314        -0.244075
 H        -1.761034         1.599566        -1.682726
 H        -4.850287         2.571429        -3.089397
