19
Iteration:    95
 C         1.089684         0.491930        -0.797983
 C        -0.281129         0.449751        -0.560017
 C        -1.382303         0.031330        -0.164160
 C        -2.789496        -0.111652         0.046858
 C        -3.207383        -1.571099         0.306889
 C        -3.499473         0.444295        -1.195424
 O        -3.445685         2.018622        -1.328545
 C        -2.450326         2.408070        -2.265345
 O        -1.831576         1.634957        -2.897289
 H         1.574549         1.338338        -1.554177
 H         1.735735         0.609046         0.165393
 H         1.554635        -0.550406        -1.155108
 H        -3.155143         0.487508         0.926743
 H        -2.849172        -1.949993         1.293210
 H        -4.309868        -1.612010         0.232934
 H        -2.922214        -2.296583        -0.478189
 H        -3.172692         0.113919        -2.243142
 H        -4.575634         0.351925        -1.207235
 H        -2.389379         3.555206        -2.440837
