19
Iteration:  4358
 C         1.442791        -0.360825         1.021779
 C         0.022390        -0.341080         0.607544
 C        -1.147488        -0.404882         0.294240
 C        -2.451005        -0.182207        -0.433635
 C        -2.801444        -1.383624        -1.419033
 C        -2.247811         1.161560        -1.295255
 O        -3.367327         2.033031        -1.349844
 C        -3.769873         2.623024        -2.467475
 O        -3.362566         2.426491        -3.566814
 H         2.176310         0.078790         0.214294
 H         1.460088         0.059942         2.035629
 H         1.858038        -1.382151         0.975552
 H        -3.214260        -0.003015         0.313941
 H        -3.771448        -1.894100        -1.294004
 H        -2.465545        -0.963908        -2.468934
 H        -2.063173        -2.159705        -1.124808
 H        -1.493345         1.743498        -0.797338
 H        -1.990956         0.777084        -2.255018
 H        -4.630993         3.278910        -2.263532
