19
Iteration:  2212charge 0 multiplicity 1
 C         0.859705         0.963807        -0.227694
 C        -0.426898         0.425265         0.070423
 C        -1.526555         0.035626        -0.084952
 C        -2.923112        -0.445845        -0.335674
 C        -3.021831        -1.929828        -0.787596
 C        -3.434342         0.404591        -1.523318
 O        -3.311026         1.755794        -1.139176
 C        -2.383091         2.440301        -1.884547
 O        -1.719790         2.074421        -2.826242
 H         1.780991         0.638190         0.401623
 H         1.372117         0.695592        -1.222469
 H         0.784411         2.095943        -0.154144
 H        -3.630794        -0.269189         0.533102
 H        -4.094099        -2.241974        -0.910406
 H        -2.591134        -2.156561        -1.770488
 H        -2.557125        -2.466063         0.027988
 H        -2.696552         0.245402        -2.400101
 H        -4.411350         0.020859        -1.846764
 H        -2.377366         3.644561        -1.534412
