19
Iteration:  4940charge 0 multiplicity 1
 C         1.235804         0.229517         1.214719
 C         0.153389        -0.206876         0.222396
 C        -0.992018        -0.238778        -0.133269
 C        -2.344046        -0.117663        -0.793246
 C        -3.535067        -1.099038        -0.772428
 C        -2.164688         0.493046        -2.153715
 O        -3.379595         1.105901        -2.653561
 C        -3.608990         2.350571        -2.274910
 O        -2.887579         2.998554        -1.572671
 H         2.273888        -0.023120         1.092069
 H         1.070394         1.343873         1.498642
 H         0.862116        -0.323427         2.068793
 H        -2.635206         0.838030        -0.316064
 H        -4.516598        -0.635139        -0.636335
 H        -3.566846        -1.722509        -1.621506
 H        -3.542019        -1.742099         0.096000
 H        -1.434819         1.246208        -2.111281
 H        -1.854665        -0.048117        -3.042326
 H        -4.523771         2.677048        -2.751973
