19
Iteration:  1709charge 0 multiplicity 1
 C         1.446354        -0.090480         0.895094
 C         0.096084        -0.156962         0.351967
 C        -1.082574        -0.090455         0.120295
 C        -2.423776        -0.110115        -0.384597
 C        -2.980991        -1.579698        -0.449173
 C        -2.636628         0.512555        -1.802261
 O        -2.497778         1.963742        -1.692781
 C        -3.409328         2.727593        -2.417473
 O        -4.111695         2.479617        -3.341038
 H         2.036653        -0.931515         0.384743
 H         1.813876         0.961021         0.764412
 H         1.381874        -0.495036         1.843543
 H        -2.988077         0.620036         0.311887
 H        -3.688853        -1.575138        -1.308712
 H        -2.103390        -2.114653        -0.820641
 H        -3.247221        -2.059032         0.491459
 H        -1.943948         0.117919        -2.509853
 H        -3.657920         0.253724        -2.034050
 H        -3.191941         3.817341        -1.995027
