19
Iteration:  4897charge 0 multiplicity 1
 C         1.184615         0.048961         1.213468
 C        -0.052731        -0.110224         0.481225
 C        -1.006472        -0.268018        -0.263285
 C        -2.291915         0.055413        -0.895893
 C        -3.266874        -1.042437        -0.569535
 C        -2.157370         0.487633        -2.327990
 O        -3.438943         1.137008        -2.788300
 C        -3.646505         2.348476        -2.227316
 O        -2.928654         2.928796        -1.500068
 H         1.844857         0.159773         0.372702
 H         1.237354         0.959845         1.921641
 H         1.471506        -0.791346         1.820523
 H        -2.724268         0.967612        -0.361748
 H        -4.278952        -0.912998        -1.030909
 H        -2.782854        -1.995687        -0.876769
 H        -3.441197        -1.028710         0.519264
 H        -1.352598         1.125980        -2.548289
 H        -2.032018        -0.428281        -2.914845
 H        -4.434128         2.868954        -2.844283
