19
Iteration:  3127
 C         1.184049        -0.061868         0.827421
 C        -0.221246         0.115141         0.434015
 C        -1.331747        -0.051536         0.035695
 C        -2.590949        -0.388796        -0.537888
 C        -2.627145        -1.923965        -0.732424
 C        -2.912245         0.476042        -1.856136
 O        -2.583133         1.854102        -1.476982
 C        -3.053928         2.847703        -2.176353
 O        -3.585349         2.830020        -3.274801
 H         1.113681        -0.682834         1.774242
 H         1.724057        -0.533980         0.063437
 H         1.872377         0.812740         1.096862
 H        -3.400194        -0.078908         0.139995
 H        -3.647691        -2.196980        -1.068777
 H        -1.784685        -2.251754        -1.419474
 H        -2.496484        -2.298458         0.293492
 H        -2.240287         0.272658        -2.678165
 H        -3.977128         0.414592        -2.226712
 H        -3.051586         3.695703        -1.516548
