19
Iteration:  3979charge 0 multiplicity 1
 C         1.433304        -0.370042         0.820555
 C         0.109931        -0.443023         0.273418
 C        -1.034408        -0.380901        -0.083640
 C        -2.381567        -0.014377        -0.408553
 C        -3.142536        -1.082976        -1.245830
 C        -2.311959         1.488356        -0.826108
 O        -3.481905         2.269331        -1.242509
 C        -3.613567         2.386677        -2.578615
 O        -3.155432         1.710556        -3.461606
 H         2.107834        -0.836796         0.171700
 H         1.731740         0.727208         0.681316
 H         1.533570        -0.879635         1.847005
 H        -2.952967        -0.030338         0.574091
 H        -4.171920        -0.746068        -1.434630
 H        -2.913752        -1.214926        -2.340743
 H        -3.163358        -2.075976        -0.841404
 H        -1.871199         2.009264        -0.010210
 H        -1.607716         1.470234        -1.658623
 H        -4.435356         3.104408        -2.773174
