19
Iteration:  4599
 C         1.417292        -0.949586         0.802774
 C         0.119989        -0.222209         0.661286
 C        -1.027169         0.086919         0.454404
 C        -2.323119         0.192998        -0.334951
 C        -2.781508        -1.145751        -0.910273
 C        -2.243214         1.192951        -1.342941
 O        -3.529417         1.152691        -2.068672
 C        -3.875249         2.180162        -2.865791
 O        -3.310606         3.272344        -2.957471
 H         1.546015        -1.837319         1.537043
 H         1.622422        -1.517474        -0.150798
 H         2.124359        -0.196050         0.993115
 H        -3.156167         0.541104         0.360736
 H        -3.860026        -1.343670        -0.804883
 H        -2.703374        -1.348133        -2.049853
 H        -2.226827        -2.041941        -0.508072
 H        -2.361755         2.174352        -0.779966
 H        -1.412380         1.115340        -2.002105
 H        -4.812859         1.873095        -3.384547
