19
Iteration:  3429
 C         1.235729        -0.198926         1.119556
 C        -0.127316        -0.027805         0.611338
 C        -1.269284        -0.137507         0.116688
 C        -2.581166        -0.211395        -0.452093
 C        -2.676106        -1.753928        -1.096517
 C        -2.811660         0.587927        -1.743577
 O        -2.429131         1.952783        -1.589010
 C        -3.031643         2.827993        -2.443933
 O        -4.006965         2.630945        -3.182173
 H         1.892862        -0.274714         0.305101
 H         1.668282         0.793640         1.536077
 H         1.565437        -1.003718         1.764130
 H        -3.419597         0.003771         0.202526
 H        -3.743656        -2.090373        -1.276664
 H        -2.074704        -1.631017        -2.042475
 H        -2.282853        -2.465729        -0.345440
 H        -2.215708         0.243505        -2.654602
 H        -3.927939         0.502029        -1.789721
 H        -2.578802         3.791530        -2.328405
