19
Iteration:  1910
 C         1.277607         0.336977         0.415871
 C        -0.106052         0.138877         0.169716
 C        -1.280310        -0.190027         0.043591
 C        -2.726213        -0.375123        -0.307298
 C        -2.970126        -1.904250        -0.517686
 C        -2.996735         0.516142        -1.551703
 O        -2.916186         1.929751        -1.232767
 C        -3.039049         2.802866        -2.325757
 O        -2.963113         2.418781        -3.474080
 H         1.322900         0.891133         1.366272
 H         1.633483        -0.629925         0.789992
 H         1.711433         0.825791        -0.538139
 H        -3.346688         0.104251         0.532220
 H        -3.822506        -2.234434        -1.139326
 H        -2.004675        -2.393413        -0.767106
 H        -3.101824        -2.121929         0.557804
 H        -2.313297         0.243357        -2.401758
 H        -3.984854         0.193652        -1.860041
 H        -3.144333         3.874600        -1.989370
