19
Iteration:    87charge 0 multiplicity 1
 C         1.113223         0.449891        -0.743824
 C        -0.301550         0.429944        -0.532326
 C        -1.387866         0.097502        -0.213986
 C        -2.776002        -0.076852         0.046151
 C        -3.212187        -1.548087         0.283201
 C        -3.509430         0.423691        -1.199983
 O        -3.377060         1.995772        -1.320133
 C        -2.533508         2.373331        -2.241093
 O        -1.824140         1.654039        -2.954259
 H         1.478598         1.353207        -1.482950
 H         1.571769         0.527133         0.165513
 H         1.356342        -0.390785        -1.293508
 H        -3.068195         0.567525         0.938076
 H        -2.758953        -2.004057         1.150479
 H        -4.281903        -1.604126         0.422035
 H        -2.895369        -2.117330        -0.579935
 H        -3.070518        -0.020980        -2.097011
 H        -4.553099         0.269496        -1.040090
 H        -2.459754         3.445695        -2.197818
