19
Iteration:  2994charge 0 multiplicity 1
 C         1.482632        -0.189373         1.079555
 C         0.084874        -0.220788         0.459883
 C        -1.032896        -0.242560         0.045064
 C        -2.409766        -0.212285        -0.521123
 C        -2.969990        -1.526141        -0.999436
 C        -2.660801         0.766599        -1.680817
 O        -3.186371         2.024782        -1.217502
 C        -3.373695         2.832898        -2.362863
 O        -3.466534         2.417510        -3.504623
 H         1.851144        -1.074274         0.511527
 H         2.034006         0.624759         0.783368
 H         1.303231        -0.442821         2.159263
 H        -3.124669         0.351507         0.075220
 H        -4.088832        -1.505355        -0.829112
 H        -2.715232        -1.798999        -2.062999
 H        -2.581319        -2.430137        -0.388133
 H        -1.787400         0.910582        -2.367707
 H        -3.441665         0.242669        -2.256398
 H        -3.674061         3.782387        -1.946469
