19
Iteration:   370charge 0 multiplicity 1
 C         1.462975         0.229047        -0.241350
 C        -0.056857         0.130541        -0.218505
 C        -1.271942         0.025396        -0.160959
 C        -2.725050        -0.093384         0.022602
 C        -3.166825        -1.545993         0.018858
 C        -3.522470         0.568290        -1.146878
 O        -3.181209         2.010752        -1.218138
 C        -2.624135         2.493336        -2.391972
 O        -2.668348         1.937773        -3.496678
 H         1.712706         0.467820         0.719376
 H         2.004930        -0.726139        -0.554795
 H         1.989311         1.107957        -0.829792
 H        -3.014179         0.348975         0.923128
 H        -2.349545        -2.121061         0.518128
 H        -4.086984        -1.766111         0.634521
 H        -3.145834        -1.899462        -1.019180
 H        -3.355575         0.141698        -2.117500
 H        -4.619501         0.603789        -0.876619
 H        -1.902000         3.204246        -2.184737
