19
Iteration:   515charge 0 multiplicity 1
 C         1.445880         0.067190        -0.035881
 C         0.016524        -0.039125         0.245075
 C        -1.152264        -0.047492         0.060002
 C        -2.565448        -0.198382        -0.161551
 C        -3.143364        -1.600363         0.123585
 C        -3.004266         0.526680        -1.513945
 O        -2.735962         2.021588        -1.373784
 C        -3.058364         2.698563        -2.496627
 O        -3.459622         2.288211        -3.571223
 H         1.811337         0.575827        -0.903219
 H         1.940200         0.178670         0.923289
 H         1.944756        -1.043465         0.047303
 H        -3.070992         0.466455         0.492021
 H        -3.095735        -1.852389         1.235988
 H        -4.191159        -1.569547        -0.219631
 H        -2.687060        -2.460613        -0.461706
 H        -2.525523         0.122712        -2.453703
 H        -4.086857         0.350221        -1.435467
 H        -2.591859         3.627590        -2.396340
