19
Iteration:  3692
 C         1.599150        -0.823079         0.836725
 C         0.166343        -0.434647         0.721020
 C        -0.947387        -0.179318         0.239111
 C        -2.277290         0.212334        -0.419717
 C        -2.884689        -1.206998        -1.081516
 C        -2.199280         1.402908        -1.331510
 O        -3.673605         1.891289        -1.383238
 C        -3.989585         2.382263        -2.578952
 O        -3.301654         2.389659        -3.592523
 H         1.965140        -0.779522         1.863788
 H         1.560266        -1.963133         0.478600
 H         2.008577        -0.197601        -0.010723
 H        -3.121223         0.507691         0.275516
 H        -3.544875        -0.840509        -1.850522
 H        -2.069037        -1.919096        -1.359293
 H        -3.510460        -1.765232        -0.307319
 H        -1.625901         2.196246        -0.924562
 H        -1.940714         1.255381        -2.360431
 H        -4.963483         2.998002        -2.448589
