19
Iteration:  3564
 C         1.494905        -0.314882         1.266708
 C         0.132275        -0.308490         0.595704
 C        -0.936358        -0.407051        -0.075623
 C        -2.222238        -0.127376        -0.584319
 C        -3.083573        -1.434811        -0.912663
 C        -2.510374         0.822780        -1.813655
 O        -3.051733         2.016860        -1.329965
 C        -3.638468         2.728486        -2.314721
 O        -3.666260         2.572313        -3.544019
 H         1.814234        -1.245679         1.732097
 H         2.062800         0.023067         0.414419
 H         1.475513         0.490549         2.053939
 H        -2.724533         0.317475         0.253941
 H        -4.148342        -1.106778        -0.976629
 H        -2.944744        -1.779651        -1.956892
 H        -2.969001        -2.315992        -0.211471
 H        -1.614880         1.205361        -2.342759
 H        -3.184506         0.314074        -2.705828
 H        -4.338179         3.401789        -1.853927
