19
Iteration:  4153
 C         1.238432        -1.210547         1.106581
 C         0.264499        -0.294186         0.479703
 C        -0.815645         0.108570         0.136054
 C        -2.171720         0.253019        -0.418166
 C        -2.453331        -0.959036        -1.201832
 C        -2.321284         1.567644        -1.160836
 O        -3.696573         1.978892        -1.343334
 C        -4.027648         2.314908        -2.598880
 O        -3.503613         2.054994        -3.672680
 H         0.914202        -1.541858         2.082997
 H         1.512158        -2.128087         0.490739
 H         2.193051        -0.690639         1.091509
 H        -2.906944         0.354616         0.362734
 H        -1.736247        -1.245599        -1.925001
 H        -2.570700        -1.869977        -0.582631
 H        -3.332151        -1.000021        -1.823124
 H        -1.798119         2.352736        -0.503229
 H        -1.836352         1.419105        -2.149918
 H        -5.042080         2.676560        -2.541812
