19
Iteration:  4839
 C         1.184105        -0.335072         1.134116
 C         0.040883         0.036651         0.419439
 C        -1.082025         0.084689        -0.080356
 C        -2.378431         0.219323        -0.672845
 C        -3.063535        -1.151461        -0.537183
 C        -2.215801         0.477514        -2.172120
 O        -3.358262         1.140005        -2.825459
 C        -3.656630         2.333967        -2.425233
 O        -3.065820         2.987195        -1.622479
 H         2.196182         0.181594         0.877496
 H         1.020247        -0.107219         2.202225
 H         1.296849        -1.395669         0.843018
 H        -2.953089         1.035485        -0.263382
 H        -3.800417        -1.319999        -1.392727
 H        -2.344691        -1.896468        -0.789774
 H        -3.458075        -1.597117         0.380232
 H        -1.353241         1.153268        -2.623525
 H        -2.349711        -0.444485        -2.778052
 H        -4.634026         2.603717        -2.905615
