19
Iteration:  1440
 C         1.112033         0.217510         1.162646
 C        -0.246105         0.199557         0.429795
 C        -1.091563         0.043809        -0.390450
 C        -2.427946        -0.126656        -0.815790
 C        -3.060286        -1.503624        -0.485464
 C        -2.638621         0.167235        -2.325086
 O        -2.273434         1.552685        -2.728937
 C        -3.021524         2.613245        -2.226575
 O        -3.966390         2.568518        -1.507896
 H         1.036559         0.034622         2.215453
 H         1.594072        -0.520063         0.543223
 H         1.540234         1.248551         0.984084
 H        -2.971610         0.633013        -0.259458
 H        -2.257101        -2.261235        -0.541023
 H        -3.540559        -1.516155         0.479415
 H        -3.844073        -1.808427        -1.131178
 H        -2.019231        -0.492885        -2.960652
 H        -3.736852         0.016673        -2.545801
 H        -2.692297         3.624057        -2.810806
