19
Iteration:  2093
 C         1.171613         0.850152         0.085760
 C        -0.216194         0.441176        -0.035423
 C        -1.314988        -0.006585        -0.328693
 C        -2.823535        -0.374616        -0.366831
 C        -2.952809        -1.862706        -0.751447
 C        -3.575551         0.458843        -1.397512
 O        -3.618238         1.895659        -1.329875
 C        -2.530762         2.475802        -1.930671
 O        -1.917004         1.886727        -2.761132
 H         1.586253         0.457333        -0.899766
 H         1.425021         1.979809        -0.092342
 H         1.713852         0.478358         0.869771
 H        -3.346558        -0.138093         0.548247
 H        -1.958885        -2.148477        -1.201294
 H        -3.078317        -2.600775         0.070802
 H        -3.804699        -2.059246        -1.422543
 H        -3.401223         0.100358        -2.454674
 H        -4.657930         0.293973        -1.227749
 H        -2.206710         3.552356        -1.651431
