19
Iteration:  3839
 C         1.462598        -0.949916         0.646644
 C         0.185989        -0.370386         0.285434
 C        -0.973082         0.000917         0.255386
 C        -2.357520         0.171362        -0.162244
 C        -2.770347        -1.020050        -1.049218
 C        -2.445402         1.588698        -0.855269
 O        -3.861799         1.880211        -1.376647
 C        -3.831092         2.235098        -2.773824
 O        -2.971005         2.147075        -3.608920
 H         2.239472        -0.192123         0.377726
 H         1.498336        -1.027641         1.699147
 H         1.513771        -1.919619         0.026264
 H        -2.939690         0.152569         0.780627
 H        -3.864929        -1.080153        -1.218529
 H        -2.467511        -0.717726        -2.078432
 H        -2.241521        -1.912329        -0.684316
 H        -2.307598         2.449343        -0.193817
 H        -1.743393         1.613531        -1.672457
 H        -4.852912         2.551077        -3.068294
