19
Iteration:   323charge 0 multiplicity 1
 C         1.363061         0.316656        -0.456446
 C        -0.125148         0.236472        -0.369242
 C        -1.312844         0.126045        -0.240945
 C        -2.772105        -0.145147        -0.014670
 C        -3.264304        -1.648855         0.153853
 C        -3.540719         0.511538        -1.181497
 O        -3.069076         2.038817        -1.141161
 C        -2.718443         2.492284        -2.363654
 O        -2.307622         1.792635        -3.247763
 H         1.770857        -0.062580         0.531675
 H         1.789543        -0.129304        -1.363196
 H         1.667848         1.422621        -0.446942
 H        -3.082912         0.390818         0.909951
 H        -3.298830        -2.048555         1.184755
 H        -4.329822        -1.450613        -0.105466
 H        -2.751647        -2.315352        -0.564259
 H        -3.073454         0.219846        -2.189033
 H        -4.620080         0.658665        -1.246312
 H        -2.788797         3.560271        -2.448635
