19
Iteration:  1375charge 0 multiplicity 1
 C         0.963854         0.495051         0.967703
 C        -0.237344         0.171142         0.257721
 C        -1.287611         0.050173        -0.386942
 C        -2.638200        -0.130082        -0.768714
 C        -3.092602        -1.593838        -0.613981
 C        -2.708778         0.205467        -2.240160
 O        -2.221962         1.421878        -2.682436
 C        -2.798058         2.590601        -2.152630
 O        -3.686777         2.522709        -1.322176
 H         1.452889        -0.251702         1.534649
 H         1.727796         0.753867         0.245526
 H         0.982866         1.372662         1.694149
 H        -3.284550         0.494730        -0.146819
 H        -3.483623        -1.641977         0.400005
 H        -3.847844        -1.772957        -1.354148
 H        -2.259021        -2.237954        -0.639903
 H        -2.124213        -0.591076        -2.748715
 H        -3.788579         0.104026        -2.574127
 H        -2.460891         3.417647        -2.714561
