19
Iteration:  2539charge 0 multiplicity 1
 C         1.251580         0.382766         0.703013
 C        -0.053630         0.040414         0.123648
 C        -1.157646        -0.069696        -0.334636
 C        -2.617007        -0.340989        -0.458325
 C        -2.914068        -1.822455        -0.662180
 C        -3.349352         0.446697        -1.627241
 O        -3.335743         1.794658        -1.206941
 C        -2.900260         2.657898        -2.118338
 O        -2.592209         2.583357        -3.287129
 H         1.948847        -0.382380         0.376362
 H         1.878463         1.156897         0.423666
 H         1.137020         0.284967         1.796010
 H        -3.000562         0.112202         0.453877
 H        -3.908635        -2.137668        -0.317606
 H        -2.965257        -1.982866        -1.788625
 H        -2.293776        -2.503104        -0.034804
 H        -2.845000         0.302949        -2.593010
 H        -4.393405         0.119603        -1.799968
 H        -3.033276         3.681839        -1.758560
