19
Iteration:  2729charge 0 multiplicity 1
 C         1.192736         0.411824         0.746705
 C        -0.188495         0.087715         0.307101
 C        -1.273671        -0.206239        -0.075614
 C        -2.723774        -0.491800        -0.440855
 C        -2.943369        -1.911299        -0.987131
 C        -3.248154         0.531657        -1.555268
 O        -2.547266         1.764393        -1.244165
 C        -2.740046         2.757362        -2.205705
 O        -3.268750         2.631275        -3.302759
 H         1.211343         1.148616         1.601580
 H         1.848842        -0.414375         0.938122
 H         1.624926         1.115850        -0.123497
 H        -3.198379        -0.209772         0.517404
 H        -4.015910        -1.870706        -1.383824
 H        -2.223945        -1.933082        -1.820853
 H        -2.824717        -2.600272        -0.143900
 H        -3.095814         0.155887        -2.588000
 H        -4.316526         0.768063        -1.478106
 H        -2.064983         3.587303        -1.868453
