19
Iteration:  3982charge 0 multiplicity 1
 C         1.454808        -0.366249         0.837510
 C         0.105424        -0.443995         0.277882
 C        -1.045260        -0.366114        -0.117911
 C        -2.389263        -0.010507        -0.420549
 C        -3.131768        -1.067956        -1.239364
 C        -2.324782         1.453736        -0.849860
 O        -3.462574         2.261016        -1.250617
 C        -3.630108         2.397215        -2.566167
 O        -3.153277         1.702935        -3.448501
 H         2.175478        -0.945188         0.140771
 H         1.697179         0.681117         0.749433
 H         1.466615        -0.798922         1.878212
 H        -2.918235        -0.008029         0.601680
 H        -4.140882        -0.785859        -1.362070
 H        -3.038957        -1.086725        -2.354401
 H        -3.098874        -2.067056        -0.791550
 H        -1.917131         1.942849         0.073228
 H        -1.648592         1.518508        -1.625509
 H        -4.420716         3.181676        -2.820054
