19
Iteration:   410charge 0 multiplicity 1
 C         1.402218         0.171425        -0.150424
 C        -0.061659         0.026532        -0.025509
 C        -1.259468         0.025905        -0.159365
 C        -2.670557        -0.113164        -0.142492
 C        -3.068494        -1.533656         0.008025
 C        -3.425745         0.619284        -1.149012
 O        -2.982882         2.016411        -1.238716
 C        -2.749170         2.555365        -2.457432
 O        -2.914857         1.983658        -3.532054
 H         1.964847         0.849110         0.657229
 H         1.850597        -0.721788         0.295349
 H         1.641327         0.402212        -1.167345
 H        -2.903910         0.563751         0.806149
 H        -2.293568        -2.144006         0.440216
 H        -3.981282        -1.773651         0.577701
 H        -3.200005        -1.966911        -0.994783
 H        -3.429490         0.073646        -2.137718
 H        -4.386838         0.404135        -0.688435
 H        -2.114710         3.518906        -2.188081
