19
Iteration:  1357charge 0 multiplicity 1
 C         1.029095         0.579253         0.854589
 C        -0.272747         0.217834         0.354275
 C        -1.322103         0.025119        -0.310879
 C        -2.684723        -0.210280        -0.823339
 C        -3.128656        -1.707945        -0.549592
 C        -2.869843         0.147288        -2.321033
 O        -2.075471         1.531871        -2.643684
 C        -2.792896         2.538520        -2.181013
 O        -3.625886         2.558699        -1.291868
 H         1.603535        -0.341287         1.210804
 H         1.667207         1.189671         0.206048
 H         0.854029         1.280755         1.738029
 H        -3.321670         0.537126        -0.256771
 H        -3.970644        -1.853506         0.165741
 H        -3.507693        -2.201781        -1.536763
 H        -2.196110        -2.228944        -0.137914
 H        -2.386208        -0.509194        -3.041258
 H        -3.898523         0.332980        -2.578554
 H        -2.323769         3.492235        -2.693004
