19
Iteration:  3357
 C         1.144022         0.132006         1.070260
 C        -0.122205        -0.019981         0.472150
 C        -1.265794        -0.066000        -0.005416
 C        -2.564632        -0.302560        -0.546479
 C        -2.816912        -1.809175        -0.947327
 C        -2.978138         0.401961        -1.851653
 O        -2.415170         1.715750        -1.724451
 C        -2.892495         2.800380        -2.210404
 O        -3.773562         2.796061        -3.005959
 H         1.613716         1.034333         0.452025
 H         1.139870         0.590900         2.028979
 H         1.976111        -0.663041         0.952438
 H        -3.357604        -0.171801         0.273985
 H        -3.676518        -2.042929        -1.567055
 H        -1.941049        -2.110809        -1.532902
 H        -2.971958        -2.447827        -0.078767
 H        -2.513669        -0.079837        -2.648493
 H        -4.098395         0.553741        -1.854106
 H        -2.416878         3.748690        -1.749726
