19
Iteration:   894charge 0 multiplicity 1
 C         1.392558        -0.025787         0.762141
 C         0.001524        -0.186518         0.260963
 C        -1.137921         0.071273        -0.102411
 C        -2.494390         0.003666        -0.461029
 C        -3.206675        -1.285992        -0.246250
 C        -2.468371         0.293763        -2.083825
 O        -2.155911         1.647673        -2.310741
 C        -3.165723         2.634283        -2.242689
 O        -4.371662         2.498028        -2.379347
 H         1.875558         0.336575        -0.123196
 H         1.372444         0.844448         1.438801
 H         1.871242        -0.811040         1.229262
 H        -2.900477         0.834180         0.173989
 H        -2.769360        -1.844081         0.604528
 H        -4.278155        -1.028228        -0.107327
 H        -3.229949        -1.794651        -1.264006
 H        -1.580668        -0.301230        -2.369560
 H        -3.370230        -0.110697        -2.571976
 H        -2.829117         3.711747        -2.251331
