19
Iteration:  4932
 C         1.180353         0.207633         1.247104
 C         0.189317        -0.179614         0.258952
 C        -0.990725        -0.248357        -0.214649
 C        -2.350369        -0.044410        -0.784944
 C        -3.507131        -1.068825        -0.751759
 C        -2.135781         0.468225        -2.151070
 O        -3.426459         1.127854        -2.715356
 C        -3.616330         2.304114        -2.236870
 O        -2.885034         2.987519        -1.552963
 H         2.194175         0.034375         0.963347
 H         1.146420         1.310210         1.494246
 H         1.133703        -0.487592         2.119428
 H        -2.593529         0.783678         0.012510
 H        -4.440265        -0.554557        -0.844855
 H        -3.528844        -1.821682        -1.666914
 H        -3.500088        -1.709910         0.176231
 H        -1.317180         1.115022        -2.208435
 H        -2.083859        -0.336651        -2.918864
 H        -4.471867         2.771084        -2.864411
