19
Iteration:  4194charge 0 multiplicity 1
 C         1.317751        -1.198945         1.235335
 C         0.185554        -0.506814         0.607232
 C        -0.745286         0.108660         0.043428
 C        -2.098022         0.332184        -0.535122
 C        -2.611802        -0.897725        -1.266380
 C        -2.296158         1.643057        -1.241568
 O        -3.674487         1.945295        -1.302188
 C        -4.111523         2.067380        -2.613202
 O        -3.466216         2.229466        -3.653131
 H         1.533880        -1.024699         2.390301
 H         1.266397        -2.312276         1.024835
 H         2.253780        -0.874964         0.857390
 H        -2.661506         0.347858         0.467901
 H        -2.726180        -0.697197        -2.406705
 H        -1.748424        -1.499731        -1.015751
 H        -3.587653        -1.137688        -0.892565
 H        -1.830164         2.426873        -0.677574
 H        -1.917244         1.642831        -2.323305
 H        -5.262927         1.991056        -2.540350
