19
Iteration:  3241
 C         1.091372         0.617658         0.890700
 C        -0.161447         0.032191         0.302493
 C        -1.246544        -0.485461        -0.050628
 C        -2.645472        -0.412896        -0.563361
 C        -3.227253        -1.733081        -1.005733
 C        -2.704555         0.535237        -1.783135
 O        -2.206804         1.759201        -1.448401
 C        -2.951622         2.692583        -2.041555
 O        -3.625254         2.568885        -3.050108
 H         0.841053         1.473661         1.486749
 H         1.695474        -0.295666         1.347430
 H         1.672410         0.851090         0.028129
 H        -3.192281         0.012606         0.280300
 H        -4.172042        -1.646396        -1.615636
 H        -2.549096        -2.295439        -1.662317
 H        -3.589423        -2.406078        -0.174823
 H        -2.099674         0.079216        -2.673556
 H        -3.764344         0.586519        -2.014140
 H        -2.586993         3.662247        -1.638113
