19
Iteration:   205charge 0 multiplicity 1
 C         0.996902         0.502533        -0.941041
 C        -0.396104         0.435789        -0.549081
 C        -1.468633         0.132202        -0.152481
 C        -2.839463        -0.122527         0.024799
 C        -3.266671        -1.630071         0.391583
 C        -3.430407         0.406817        -1.297569
 O        -3.303549         1.934244        -1.232557
 C        -2.430619         2.372119        -2.163320
 O        -1.689387         1.751624        -2.918096
 H         1.161912        -0.266848        -1.567521
 H         1.131878         1.531502        -1.450037
 H         1.678661         0.297892         0.000305
 H        -3.195020         0.546325         0.782786
 H        -2.497217        -2.218389         0.919920
 H        -4.260408        -1.648829         0.897133
 H        -3.344148        -2.017413        -0.638007
 H        -2.910207         0.093237        -2.247637
 H        -4.512564         0.276170        -1.337412
 H        -2.526821         3.486081        -2.323059
