19
Iteration:  4639
 C         1.506207        -0.904282         0.999055
 C         0.152224        -0.511697         0.487648
 C        -0.914661        -0.017078         0.170270
 C        -2.365530         0.164178        -0.258258
 C        -2.804092        -1.180356        -0.629026
 C        -2.378876         1.280104        -1.349005
 O        -3.484863         1.102298        -2.276021
 C        -3.811183         2.263681        -3.033978
 O        -3.463578         3.431073        -2.805448
 H         1.554330        -1.052761         2.051401
 H         1.870324        -1.645078         0.343360
 H         2.252658        -0.094772         0.679518
 H        -2.985904         0.526701         0.586204
 H        -3.759320        -1.220219        -1.076050
 H        -2.027582        -1.621741        -1.277644
 H        -2.918555        -1.777292         0.253006
 H        -2.509172         2.261073        -0.820285
 H        -1.470850         1.192605        -2.028158
 H        -4.682220         2.002119        -3.695373
