19
Iteration:   888
 C         1.419739        -0.004331         0.777106
 C         0.017575        -0.198382         0.249654
 C        -1.110981         0.083612        -0.069936
 C        -2.483864         0.024483        -0.457125
 C        -3.273677        -1.312339        -0.300854
 C        -2.461324         0.318793        -2.004849
 O        -2.170951         1.653670        -2.331274
 C        -3.184962         2.625443        -2.217421
 O        -4.384079         2.488114        -2.422397
 H         1.970197         0.340685        -0.193956
 H         1.545007         0.758976         1.555908
 H         2.050322        -0.970475         1.057153
 H        -2.937892         0.858426         0.083874
 H        -2.882053        -1.880880         0.540675
 H        -4.300339        -0.997223        -0.090175
 H        -3.241736        -1.831263        -1.251106
 H        -1.596521        -0.311288        -2.221402
 H        -3.367639        -0.057848        -2.477799
 H        -2.660119         3.601735        -2.303288
