19
Iteration:  4835charge 0 multiplicity 1
 C         1.180632        -0.364301         1.145434
 C         0.032220         0.070757         0.374617
 C        -1.059156         0.089435        -0.046269
 C        -2.401658         0.201039        -0.657765
 C        -3.068190        -1.141120        -0.557013
 C        -2.230457         0.493580        -2.173334
 O        -3.345610         1.111265        -2.805557
 C        -3.683888         2.325673        -2.430658
 O        -3.067818         3.004935        -1.638014
 H         2.094412         0.143974         0.885560
 H         1.092610        -0.251034         2.213176
 H         1.347969        -1.434172         0.795280
 H        -2.905344         1.064424        -0.210198
 H        -3.766538        -1.231652        -1.329468
 H        -2.214920        -1.873447        -0.850587
 H        -3.333185        -1.604973         0.406655
 H        -1.397142         1.207310        -2.428817
 H        -2.283463        -0.420226        -2.763241
 H        -4.479692         2.674896        -3.109036
