19
Iteration:  2420
 C         1.233395         0.203548         0.325250
 C        -0.251336         0.231132         0.329177
 C        -1.372109         0.012761        -0.033019
 C        -2.718034        -0.290837        -0.363208
 C        -2.673990        -1.786863        -0.772968
 C        -3.384404         0.450882        -1.536485
 O        -3.539505         1.939682        -1.345336
 C        -2.915268         2.699374        -2.234289
 O        -2.202568         2.290581        -3.118385
 H         1.572847         1.041840        -0.291718
 H         1.636243         0.610987         1.305114
 H         1.615978        -0.914453         0.273859
 H        -3.318820        -0.187690         0.551063
 H        -1.867067        -2.180393        -0.176754
 H        -3.548842        -2.440018        -0.686586
 H        -2.230443        -1.786950        -1.798178
 H        -2.872344         0.311945        -2.510762
 H        -4.412581         0.085669        -1.520727
 H        -2.933385         3.771399        -1.924508
