19
Iteration:  2379charge 0 multiplicity 1
 C         1.208204         0.488372         0.305670
 C        -0.194760         0.256310         0.094229
 C        -1.421500         0.052429        -0.027180
 C        -2.839540        -0.401260        -0.322703
 C        -2.949714        -1.978200        -0.678118
 C        -3.353194         0.327293        -1.564971
 O        -3.352698         1.842924        -1.312626
 C        -2.781615         2.692315        -2.155786
 O        -2.074089         2.418723        -3.091888
 H         1.247113         1.540303         0.055191
 H         1.454796         0.380791         1.392191
 H         1.766368         0.016630        -0.430851
 H        -3.525281        -0.087306         0.503928
 H        -2.081199        -2.508105        -0.422192
 H        -3.834093        -2.391026        -0.238490
 H        -2.894391        -2.141953        -1.744642
 H        -2.850415         0.123508        -2.481813
 H        -4.426944         0.209808        -1.810454
 H        -3.235533         3.657435        -1.787372
