19
Iteration:  3503charge 0 multiplicity 1
 C         1.161887        -0.241113         1.210845
 C         0.048264        -0.219246         0.371167
 C        -1.046622        -0.300323        -0.168879
 C        -2.382431        -0.173725        -0.630709
 C        -2.922185        -1.721873        -0.685065
 C        -2.379767         0.666358        -1.923335
 O        -2.822345         2.034461        -1.438600
 C        -3.422574         2.909628        -2.245119
 O        -3.828984         2.624053        -3.370227
 H         1.950577        -1.092229         1.149589
 H         1.838889         0.664726         1.229129
 H         0.832634        -0.219008         2.248025
 H        -2.966078         0.494473         0.089020
 H        -3.880849        -1.970839        -1.217246
 H        -2.022844        -2.256193        -1.049402
 H        -3.168617        -2.023153         0.340039
 H        -1.353329         0.811845        -2.365252
 H        -3.104867         0.358363        -2.580169
 H        -3.615251         3.899667        -1.700291
