19
Iteration:  2999charge 0 multiplicity 1
 C         1.477515        -0.202914         1.111783
 C         0.125562        -0.236368         0.487446
 C        -1.037119        -0.257610        -0.020580
 C        -2.438821        -0.186372        -0.541779
 C        -2.979196        -1.576232        -0.999937
 C        -2.670827         0.766903        -1.665771
 O        -3.167746         2.063636        -1.230754
 C        -3.436086         2.810723        -2.364122
 O        -3.440895         2.419471        -3.509815
 H         1.948223        -1.060586         0.626711
 H         2.050075         0.732114         0.663977
 H         1.462329        -0.325657         2.175977
 H        -3.140412         0.228298         0.254315
 H        -4.034912        -1.517569        -0.867089
 H        -2.782613        -1.749118        -2.054358
 H        -2.503009        -2.300308        -0.401907
 H        -1.771454         0.862685        -2.246089
 H        -3.623245         0.357431        -2.119823
 H        -3.587090         3.860227        -1.902825
