19
Iteration:  2250charge 0 multiplicity 1
 C         0.859905         1.055024        -0.068602
 C        -0.387487         0.326118        -0.198890
 C        -1.488679        -0.249609        -0.026310
 C        -2.873364        -0.532445        -0.324825
 C        -3.178058        -2.115063        -0.587798
 C        -3.341967         0.390342        -1.511090
 O        -3.236979         1.802620        -1.203463
 C        -2.438258         2.641085        -1.983955
 O        -1.747236         2.318903        -2.939932
 H         0.955390         1.061513         1.065257
 H         1.731857         0.699793        -0.673706
 H         0.675075         2.091074        -0.440874
 H        -3.461539        -0.256037         0.555889
 H        -4.002862        -2.296126         0.112112
 H        -3.478806        -2.412206        -1.633574
 H        -2.299976        -2.791256        -0.369361
 H        -2.675030         0.221933        -2.320670
 H        -4.405471         0.241818        -1.807941
 H        -2.297126         3.532040        -1.394744
