19
Iteration:  4242
 C         1.460745        -0.997052         1.294366
 C         0.221870        -0.560649         0.606124
 C        -0.828016        -0.225737         0.113393
 C        -2.119602         0.302563        -0.430309
 C        -2.805841        -0.758955        -1.402504
 C        -2.125928         1.613565        -1.155277
 O        -3.585297         1.797499        -1.393468
 C        -4.038012         2.085435        -2.622244
 O        -3.608632         2.341571        -3.718092
 H         1.705882        -0.235699         2.038002
 H         1.230318        -1.976222         1.916673
 H         2.457945        -1.217798         0.681931
 H        -2.851862         0.319586         0.393322
 H        -3.440895        -0.195485        -2.047260
 H        -2.036450        -1.438752        -1.906318
 H        -3.634146        -1.102090        -0.745237
 H        -1.991392         2.627381        -0.506313
 H        -1.639130         1.583422        -2.124094
 H        -5.121369         2.120355        -2.407768
