19
Iteration:  4374charge 0 multiplicity 1
 C         1.418322        -0.269047         1.005114
 C        -0.011565        -0.452014         0.612389
 C        -1.155088        -0.449666         0.216184
 C        -2.444231        -0.130221        -0.481366
 C        -2.812485        -1.424139        -1.331475
 C        -2.138466         1.164599        -1.261924
 O        -3.372030         1.974663        -1.267570
 C        -3.802622         2.555469        -2.498694
 O        -3.340214         2.533051        -3.615436
 H         1.922513         0.137212         0.135375
 H         1.541930         0.490845         1.843598
 H         1.968349        -1.199122         1.331154
 H        -3.315017         0.148293         0.192285
 H        -3.906506        -1.598778        -1.387637
 H        -2.795341        -1.407138        -2.410790
 H        -2.312893        -2.390715        -1.127286
 H        -1.260505         1.712458        -0.756256
 H        -1.658156         1.059732        -2.290575
 H        -4.674933         3.211579        -2.157027
