19
Iteration:  2154
 C         0.989735         0.843378        -0.151302
 C        -0.430857         0.501277        -0.200624
 C        -1.547530         0.089226        -0.172894
 C        -2.934862        -0.427366        -0.297326
 C        -2.724409        -1.885438        -0.815188
 C        -3.657302         0.459074        -1.387128
 O        -3.501504         1.921791        -1.276420
 C        -2.429376         2.475211        -1.955416
 O        -1.643410         1.823066        -2.632028
 H         1.524840        -0.087096        -0.047258
 H         1.250860         1.424552        -0.980169
 H         1.222109         1.479630         0.824034
 H        -3.478613        -0.429570         0.672748
 H        -3.041964        -1.892315        -1.843813
 H        -1.683273        -2.149945        -0.700377
 H        -3.331223        -2.646949        -0.316064
 H        -3.351129         0.200832        -2.361502
 H        -4.730447         0.244883        -1.212898
 H        -2.438984         3.493874        -1.354190
