19
Iteration:  3943charge 0 multiplicity 1
 C         1.470317        -0.419747         0.607985
 C         0.069567        -0.416460         0.342007
 C        -1.146883        -0.362010         0.221401
 C        -2.502541         0.039589        -0.308508
 C        -3.042528        -0.922321        -1.339015
 C        -2.267448         1.404562        -0.866024
 O        -3.419825         2.137595        -1.288208
 C        -3.756048         2.245684        -2.557211
 O        -3.069488         1.825717        -3.482208
 H         1.921793        -0.574861        -0.377282
 H         1.773774         0.559032         1.086795
 H         1.908732        -1.070567         1.329873
 H        -3.213591         0.150322         0.480572
 H        -3.556112        -0.221601        -2.087031
 H        -2.137387        -1.363439        -1.712115
 H        -3.826484        -1.546315        -0.830265
 H        -1.907086         2.095509        -0.074821
 H        -1.470200         1.371047        -1.745361
 H        -4.788775         2.563147        -2.582990
