19
Iteration:   549charge 0 multiplicity 1
 C         1.538317        -0.042894         0.102654
 C         0.022174        -0.003868         0.150609
 C        -1.200300        -0.036580         0.106537
 C        -2.650987        -0.028684        -0.050243
 C        -3.112703        -1.513057         0.024594
 C        -2.922550         0.429563        -1.524957
 O        -2.639829         1.836262        -1.508557
 C        -3.101530         2.675343        -2.446011
 O        -3.615242         2.399814        -3.532141
 H         2.099671         0.043902        -0.825069
 H         1.880793         0.783354         0.712971
 H         1.726622        -1.082804         0.557228
 H        -3.151624         0.576233         0.665468
 H        -2.530947        -2.023189         0.828778
 H        -4.201014        -1.571155         0.239921
 H        -2.875963        -1.986289        -0.961504
 H        -2.234523        -0.027041        -2.314593
 H        -3.931690         0.324735        -1.961757
 H        -2.791809         3.661019        -2.292321
