19
Iteration:  3413charge 0 multiplicity 1
 C         1.187143        -0.098311         1.060701
 C        -0.146067        -0.031775         0.514680
 C        -1.326734        -0.127444         0.202015
 C        -2.563189        -0.389836        -0.565721
 C        -2.641703        -1.832982        -1.011015
 C        -2.877949         0.665836        -1.707494
 O        -2.352841         2.061594        -1.560896
 C        -2.963926         2.851884        -2.514273
 O        -4.001048         2.601867        -3.089632
 H         1.960364        -0.107491         0.176994
 H         1.366838         0.586524         1.840437
 H         1.133168        -1.067060         1.623223
 H        -3.399110        -0.325066         0.239599
 H        -3.632933        -2.169327        -1.287180
 H        -2.037453        -2.066679        -1.867014
 H        -2.263154        -2.580714        -0.309891
 H        -2.444078         0.325167        -2.637361
 H        -3.906740         0.816798        -1.967215
 H        -2.352675         3.774852        -2.776573
