19
Iteration:  3784
 C         1.531749        -1.020917         0.890853
 C         0.215098        -0.433822         0.458317
 C        -0.754720        -0.010921        -0.188256
 C        -2.243409         0.299248        -0.321044
 C        -3.059088        -0.822633        -1.028933
 C        -2.472168         1.613213        -0.977549
 O        -3.804365         1.732278        -1.366729
 C        -3.880158         1.995943        -2.739878
 O        -3.028654         2.361361        -3.508209
 H         2.037487        -0.177933         1.333843
 H         1.312285        -1.714632         1.676328
 H         2.147003        -1.527962         0.074136
 H        -2.581657         0.312098         0.706461
 H        -3.794938        -1.159666        -0.235960
 H        -3.501994        -0.719588        -2.016281
 H        -2.531455        -1.760789        -1.148600
 H        -2.408526         2.453506        -0.260650
 H        -1.736619         1.769341        -1.784722
 H        -4.892535         1.813642        -3.113155
