19
Iteration:  3720charge 0 multiplicity 1
 C         1.500715        -0.859319         0.873111
 C         0.198054        -0.555316         0.446412
 C        -0.883691        -0.133108         0.126324
 C        -2.259760         0.220323        -0.193408
 C        -2.911955        -0.971383        -1.070515
 C        -2.268386         1.477259        -1.081932
 O        -3.601304         1.789488        -1.496567
 C        -4.013180         2.203675        -2.667124
 O        -3.311610         2.440951        -3.614817
 H         1.695671        -0.398273         1.921190
 H         1.630136        -1.861840         1.106089
 H         2.267382        -0.572455         0.202478
 H        -2.943441         0.344114         0.626922
 H        -3.740162        -0.409358        -1.514374
 H        -2.294353        -1.351320        -1.898653
 H        -3.170756        -1.805779        -0.450288
 H        -1.735916         2.388015        -0.557114
 H        -1.626052         1.229338        -1.974216
 H        -5.057092         2.389910        -2.521257
