19
Iteration:  1572
 C         1.301725         0.023801         0.898197
 C        -0.053312        -0.097799         0.466999
 C        -1.159481        -0.034300        -0.041998
 C        -2.528023         0.022824        -0.612427
 C        -3.048174        -1.531111        -0.458913
 C        -2.451659         0.463119        -2.066736
 O        -2.113763         1.882804        -2.169403
 C        -3.222877         2.649922        -2.281096
 O        -4.362340         2.312087        -2.505098
 H         1.829621         0.939792         0.814832
 H         1.405027        -0.283501         1.937038
 H         1.980107        -0.715503         0.300764
 H        -3.260058         0.573306        -0.056140
 H        -3.737669        -1.407404         0.369781
 H        -3.782103        -1.707642        -1.297598
 H        -2.233377        -2.235221        -0.272719
 H        -1.578155        -0.076924        -2.499341
 H        -3.399237         0.335818        -2.666531
 H        -2.893167         3.731588        -2.322378
