19
Iteration:  3769charge 0 multiplicity 1
 C         1.519431        -0.965433         0.954922
 C         0.264412        -0.486438         0.364310
 C        -0.808953        -0.129982        -0.113203
 C        -2.225466         0.251690        -0.308148
 C        -3.081382        -0.885097        -0.981315
 C        -2.322775         1.721836        -0.939036
 O        -3.756653         1.759633        -1.475628
 C        -3.972792         1.946697        -2.775513
 O        -3.119475         2.426254        -3.493290
 H         2.014037        -0.257159         1.636896
 H         1.346690        -1.892537         1.693115
 H         2.234631        -1.290586         0.060882
 H        -2.621405         0.439309         0.754609
 H        -4.095072        -1.026071        -0.580326
 H        -3.337762        -0.466307        -1.968856
 H        -2.335937        -1.688579        -1.117288
 H        -2.155914         2.500161        -0.228252
 H        -1.701631         1.947902        -1.810237
 H        -5.033382         1.545655        -3.010364
