19
Iteration:   599charge 0 multiplicity 1
 C         1.549174        -0.098559         0.425150
 C         0.100135        -0.030528         0.115801
 C        -1.127853        -0.126776        -0.029112
 C        -2.594506        -0.043734        -0.240350
 C        -3.118167        -1.497700        -0.005223
 C        -2.971180         0.485461        -1.569103
 O        -2.502976         1.948186        -1.574353
 C        -3.054651         2.710340        -2.561874
 O        -3.898242         2.314292        -3.317967
 H         2.006214        -0.764635        -0.426000
 H         2.000455         0.886603         0.223429
 H         1.744877        -0.598370         1.350164
 H        -3.071788         0.712406         0.483835
 H        -2.697019        -1.863049         0.941296
 H        -4.191072        -1.606196         0.029523
 H        -2.559561        -2.034994        -0.774242
 H        -2.569985         0.095973        -2.455870
 H        -4.029594         0.577838        -1.767617
 H        -2.831891         3.843092        -2.595044
