19
Iteration:  2201charge 0 multiplicity 1
 C         0.953550         0.963389        -0.242334
 C        -0.402655         0.434961         0.088166
 C        -1.574229         0.125405        -0.056495
 C        -2.916346        -0.443841        -0.381022
 C        -3.013766        -1.928052        -0.825208
 C        -3.461462         0.362829        -1.504401
 O        -3.345211         1.778053        -1.182204
 C        -2.352849         2.433376        -1.836797
 O        -1.723458         2.017628        -2.795758
 H         1.745375         0.482919         0.411139
 H         0.957324         0.756328        -1.362237
 H         1.020215         2.100570        -0.115942
 H        -3.541970        -0.319327         0.549242
 H        -4.033331        -2.194436        -1.193641
 H        -2.215862        -2.098189        -1.538072
 H        -2.805565        -2.622322        -0.005426
 H        -2.928921         0.130205        -2.492423
 H        -4.550825         0.291402        -1.599357
 H        -2.519445         3.582501        -1.512163
