19
Iteration:  3073
 C         1.361467        -0.186156         1.110484
 C         0.035295        -0.164176         0.342279
 C        -1.120638        -0.031638        -0.086620
 C        -2.454704        -0.263876        -0.492283
 C        -2.778652        -1.754980        -0.824458
 C        -2.872000         0.498080        -1.815646
 O        -3.003029         1.963950        -1.354212
 C        -3.221103         2.924645        -2.274253
 O        -3.559920         2.672644        -3.402737
 H         1.476745        -1.185686         1.614028
 H         2.102322         0.011148         0.356801
 H         1.352053         0.622085         1.882762
 H        -3.175547         0.207046         0.149691
 H        -3.804901        -1.865183        -1.251289
 H        -1.998221        -2.186870        -1.548495
 H        -2.707358        -2.298445         0.155070
 H        -2.120920         0.542879        -2.554635
 H        -3.909752         0.095126        -1.998696
 H        -2.833139         3.855734        -1.849890
