19
Iteration:  3117charge 0 multiplicity 1
 C         1.198633        -0.158452         0.860100
 C        -0.143314         0.210955         0.479462
 C        -1.226334        -0.053254        -0.013407
 C        -2.580882        -0.357543        -0.591838
 C        -2.688281        -1.896580        -0.708983
 C        -2.891154         0.431569        -1.877848
 O        -2.697666         1.861182        -1.448623
 C        -3.073561         2.944097        -2.198413
 O        -3.577095         2.796065        -3.271170
 H         1.190939        -0.904752         1.699517
 H         1.667537        -0.585251         0.047937
 H         1.411641         0.869890         1.221818
 H        -3.329249        -0.126627         0.157106
 H        -3.551388        -2.409767        -1.210641
 H        -1.823856        -2.323503        -1.358589
 H        -2.516704        -2.409879         0.248458
 H        -2.151128         0.055051        -2.545786
 H        -3.994483         0.251781        -2.091294
 H        -2.871610         3.874664        -1.678676
