19
Iteration:  4620charge 0 multiplicity 1
 C         1.469088        -0.908814         0.846767
 C         0.139250        -0.404370         0.609912
 C        -0.994399         0.002213         0.289284
 C        -2.352427         0.223463        -0.164528
 C        -2.740010        -1.188936        -0.768141
 C        -2.320669         1.276974        -1.358193
 O        -3.532835         1.171625        -2.231604
 C        -3.863764         2.212674        -2.951881
 O        -3.394338         3.345857        -2.869071
 H         1.345405        -1.393217         1.879816
 H         1.768153        -1.731901         0.181664
 H         2.231064        -0.178921         0.955091
 H        -2.842423         0.540598         0.818927
 H        -3.789208        -1.354256        -0.953475
 H        -2.313740        -1.436446        -1.813061
 H        -2.461862        -2.095736        -0.195750
 H        -2.304948         2.380789        -1.071400
 H        -1.605349         0.886366        -2.052168
 H        -4.480705         1.791687        -3.817171
