19
Iteration:  2928charge 0 multiplicity 1
 C         1.369641        -0.216445         0.850203
 C        -0.076737        -0.248064         0.529109
 C        -1.310159        -0.150003         0.215752
 C        -2.491201        -0.215117        -0.565430
 C        -2.773405        -1.788885        -0.659150
 C        -2.504669         0.650465        -1.833638
 O        -2.885551         2.057054        -1.445884
 C        -3.597089         2.836362        -2.291548
 O        -3.441771         2.727887        -3.480133
 H         1.852326        -0.290827        -0.187224
 H         1.836886         0.626708         1.218898
 H         1.710183        -1.230954         1.350716
 H        -3.310903         0.006012         0.142628
 H        -3.484381        -2.002666        -1.542432
 H        -1.750932        -2.267710        -0.741296
 H        -3.083445        -2.040294         0.413794
 H        -1.476852         0.732648        -2.345928
 H        -3.344252         0.209285        -2.324318
 H        -4.336094         3.531053        -1.751362
