19
Iteration:  1886
 C         1.366988         0.267044         0.544367
 C        -0.044900         0.000763         0.208465
 C        -1.243998        -0.000699         0.010066
 C        -2.708537        -0.297410        -0.262804
 C        -2.964109        -1.786361        -0.584074
 C        -2.997781         0.523051        -1.570542
 O        -2.924334         1.911552        -1.226669
 C        -3.020958         2.718857        -2.343948
 O        -3.155705         2.352210        -3.491583
 H         1.506574         0.503028         1.648888
 H         1.915748        -0.737106         0.452582
 H         1.621109         1.018308        -0.203253
 H        -3.354009         0.198522         0.493191
 H        -3.206447        -1.669556        -1.653889
 H        -2.002489        -2.392724        -0.491995
 H        -3.797768        -2.275082        -0.057699
 H        -2.312111         0.306832        -2.372175
 H        -3.990136         0.222823        -1.915483
 H        -2.956322         3.734601        -2.059845
