19
Iteration:  3697charge 0 multiplicity 1
 C         1.569042        -0.845199         0.855203
 C         0.160977        -0.455494         0.673083
 C        -0.952743        -0.162151         0.211807
 C        -2.269831         0.193086        -0.389547
 C        -2.897285        -1.120170        -1.068737
 C        -2.209522         1.405092        -1.304977
 O        -3.689070         1.849821        -1.352133
 C        -3.982902         2.368939        -2.600922
 O        -3.302818         2.401695        -3.632199
 H         2.155374        -0.743338         1.797875
 H         1.736529        -1.844434         0.609499
 H         2.042245        -0.304591         0.040967
 H        -3.010099         0.503433         0.321803
 H        -3.563883        -0.814449        -1.941697
 H        -2.110262        -1.780024        -1.394900
 H        -3.329789        -1.704533        -0.275118
 H        -1.619837         2.191985        -0.712998
 H        -1.733011         1.300796        -2.348666
 H        -4.954876         2.789459        -2.494010
