19
Iteration:  4159
 C         1.229854        -1.196495         1.101623
 C         0.256396        -0.319743         0.488868
 C        -0.823761         0.097495         0.128990
 C        -2.109915         0.259643        -0.436691
 C        -2.457404        -0.964691        -1.208267
 C        -2.300044         1.563350        -1.166799
 O        -3.700082         1.992585        -1.339416
 C        -4.082204         2.274065        -2.611770
 O        -3.481242         2.075494        -3.651532
 H         0.791715        -1.472517         2.154926
 H         1.321177        -2.112277         0.518962
 H         2.216033        -0.707345         1.065810
 H        -2.834990         0.197618         0.450521
 H        -1.612377        -1.117463        -1.981669
 H        -2.439669        -1.833886        -0.544637
 H        -3.545964        -1.038811        -1.544433
 H        -1.877797         2.383394        -0.675730
 H        -1.797423         1.501392        -2.158297
 H        -5.118751         2.779346        -2.624931
