19
Iteration:  2885
 C         1.284323        -0.153093         0.828120
 C        -0.052314        -0.151048         0.590649
 C        -1.219688        -0.022933         0.140361
 C        -2.542869        -0.261486        -0.456836
 C        -2.765195        -1.746163        -0.798308
 C        -2.628249         0.467186        -1.751609
 O        -2.956824         1.900367        -1.467591
 C        -3.193726         2.903364        -2.314667
 O        -3.595197         2.735999        -3.435235
 H         2.047607         0.267882         0.097391
 H         1.545696         0.147762         1.782470
 H         1.679766        -1.218987         0.944119
 H        -3.308198         0.261794         0.160019
 H        -3.732290        -1.894552        -1.390823
 H        -1.941546        -2.285520        -1.344275
 H        -2.833709        -2.317569         0.198490
 H        -1.619842         0.523180        -2.249573
 H        -3.474857         0.221283        -2.360354
 H        -3.351865         3.930239        -1.881680
