19
Iteration:  2262
 C         0.827297         1.084796         0.010633
 C        -0.312392         0.252473        -0.215414
 C        -1.477126        -0.214895        -0.139327
 C        -2.871674        -0.607389        -0.341987
 C        -3.252790        -2.061078        -0.514530
 C        -3.319015         0.336597        -1.519152
 O        -3.221760         1.800439        -1.178677
 C        -2.420379         2.565722        -1.979581
 O        -1.763034         2.438576        -2.986196
 H         1.206016         1.346881         1.073671
 H         1.726411         0.520314        -0.304516
 H         0.742293         2.096905        -0.495950
 H        -3.380586        -0.315762         0.570776
 H        -3.994046        -2.514067         0.190246
 H        -3.720043        -2.117345        -1.530239
 H        -2.353013        -2.703675        -0.364506
 H        -2.782637         0.109266        -2.385925
 H        -4.383426         0.122256        -1.750990
 H        -2.570397         3.580132        -1.594416
