19
Iteration:   442
 C         1.478709         0.090755        -0.015955
 C        -0.006625         0.140179        -0.170975
 C        -1.199128        -0.005345        -0.119365
 C        -2.674223        -0.189942         0.013362
 C        -3.178849        -1.666193         0.025187
 C        -3.299654         0.656786        -1.233072
 O        -2.867703         2.071537        -1.260843
 C        -2.899943         2.627407        -2.519669
 O        -3.064530         2.011714        -3.518075
 H         1.879259         1.162821         0.150291
 H         1.698149        -0.732777         0.645428
 H         2.086134        -0.202026        -0.794341
 H        -2.993100         0.330128         0.988945
 H        -2.905004        -2.291303         0.873708
 H        -4.270168        -1.660875        -0.079402
 H        -2.700353        -2.089336        -0.855531
 H        -2.814219         0.168219        -2.126134
 H        -4.386504         0.613178        -1.259592
 H        -2.533155         3.755278        -2.477737
