19
Iteration:  2749charge 0 multiplicity 1
 C         1.188920         0.399365         0.895070
 C        -0.075162         0.075797         0.277844
 C        -1.185218        -0.303747        -0.176443
 C        -2.607685        -0.457060        -0.450710
 C        -2.994322        -1.881406        -1.043771
 C        -3.228201         0.524798        -1.403018
 O        -2.706566         1.897524        -1.278507
 C        -2.624746         2.714971        -2.345268
 O        -3.382070         2.634137        -3.297174
 H         1.083908         1.241751         1.547216
 H         1.344809        -0.611435         1.203060
 H         1.877652         0.858884         0.151777
 H        -3.058816        -0.387892         0.580867
 H        -4.067578        -1.829165        -1.460440
 H        -2.259772        -2.220200        -1.835192
 H        -3.019906        -2.512926        -0.093231
 H        -3.027411         0.259038        -2.434688
 H        -4.338906         0.496566        -1.192913
 H        -2.008629         3.563309        -1.936131
