19
Iteration:  3041charge 0 multiplicity 1
 C         1.339995        -0.180836         1.127916
 C         0.065879        -0.331168         0.370061
 C        -1.037421        -0.260865        -0.111322
 C        -2.396039        -0.220070        -0.495347
 C        -2.807853        -1.671481        -0.895606
 C        -2.821964         0.721934        -1.599016
 O        -2.979605         2.156270        -1.273933
 C        -3.501825         2.816453        -2.350112
 O        -3.437719         2.578516        -3.545847
 H         1.865875        -1.106062         1.345005
 H         1.933254         0.366012         0.418133
 H         1.006751         0.418855         1.985935
 H        -3.019384         0.059039         0.364560
 H        -3.872149        -1.939722        -0.876354
 H        -2.332901        -2.169245        -1.795789
 H        -2.387372        -2.331435        -0.107685
 H        -2.258938         0.627405        -2.519926
 H        -3.813092         0.227479        -1.911920
 H        -3.754734         3.849670        -1.986810
