19
Iteration:  1991charge 0 multiplicity 1
 C         1.255008         0.702924         0.249605
 C        -0.212950         0.210433         0.045791
 C        -1.357347        -0.193365        -0.010885
 C        -2.760651        -0.430924        -0.296589
 C        -3.051518        -1.987292        -0.397835
 C        -3.266807         0.361883        -1.695185
 O        -3.208457         1.762697        -1.265288
 C        -2.706775         2.685898        -2.117894
 O        -2.465164         2.512387        -3.278360
 H         1.361854         1.664622        -0.218853
 H         1.656145         0.689532         1.241040
 H         1.996854         0.097682        -0.369035
 H        -3.401912         0.081355         0.464339
 H        -3.108636        -2.396643         0.595472
 H        -4.010395        -2.171246        -0.899329
 H        -2.193724        -2.491169        -0.806935
 H        -2.647866         0.251370        -2.575796
 H        -4.370837         0.131738        -1.872584
 H        -2.496539         3.774609        -1.814140
