19
Iteration:  2806charge 0 multiplicity 1
 C         1.146342         0.164084         1.046227
 C        -0.031547        -0.152488         0.274279
 C        -1.098213        -0.176120        -0.311592
 C        -2.528121        -0.335197        -0.535411
 C        -2.858801        -1.756712        -0.948777
 C        -3.186403         0.639495        -1.489197
 O        -2.620939         1.958383        -1.295387
 C        -2.968697         2.783806        -2.287110
 O        -3.457564         2.447558        -3.344330
 H         1.034045         1.181211         1.350711
 H         0.971446        -0.157582         1.997420
 H         2.188549        -0.217376         0.842819
 H        -2.894515        -0.017555         0.458235
 H        -4.005199        -1.710267        -0.791217
 H        -2.573584        -1.824107        -2.033053
 H        -2.365097        -2.459082        -0.298003
 H        -3.150150         0.330906        -2.562765
 H        -4.236835         0.779607        -1.287000
 H        -2.615762         3.825870        -2.067354
