19
Iteration:  2026
 C         1.072300         0.701632         0.234174
 C        -0.268394         0.267084        -0.092007
 C        -1.414812        -0.085336        -0.255408
 C        -2.755513        -0.446062        -0.298499
 C        -2.969541        -1.952895        -0.464648
 C        -3.302821         0.393620        -1.508528
 O        -3.264334         1.809462        -1.124181
 C        -2.726004         2.641818        -2.155167
 O        -2.136004         2.345338        -3.208278
 H         1.264203         1.416242        -0.610878
 H         1.243573         1.402578         1.088412
 H         1.762226        -0.087267         0.133378
 H        -3.219133        -0.154449         0.647763
 H        -2.181324        -2.441862         0.123406
 H        -3.892277        -2.295434         0.037659
 H        -3.010149        -2.340779        -1.493760
 H        -2.829594         0.258200        -2.472557
 H        -4.393742         0.090175        -1.616826
 H        -3.153944         3.664379        -1.666222
