19
Iteration:  1153
 C         0.927255         0.801829         0.504346
 C        -0.357597         0.347166         0.244915
 C        -1.346931        -0.122559        -0.267084
 C        -2.738017        -0.241003        -0.796391
 C        -3.261441        -1.714561        -0.517846
 C        -2.768549         0.137232        -2.246153
 O        -2.047770         1.388677        -2.496942
 C        -2.603113         2.484911        -2.032597
 O        -3.565139         2.611974        -1.297565
 H         0.946258         1.839268         0.967395
 H         1.202377         0.170149         1.440650
 H         1.678919         0.610236        -0.190858
 H        -3.327940         0.558295        -0.304123
 H        -2.622503        -2.181266         0.261946
 H        -4.363385        -1.695946        -0.289120
 H        -3.295069        -2.394140        -1.451913
 H        -2.148089        -0.540460        -2.893274
 H        -3.816392         0.211016        -2.685922
 H        -1.868674         3.318177        -2.422673
