19
Iteration:  4815
 C         1.260287        -0.472771         1.097102
 C         0.079089         0.061443         0.394348
 C        -1.091600         0.208308         0.006179
 C        -2.417106         0.181876        -0.655179
 C        -3.077801        -1.238220        -0.587418
 C        -2.112427         0.609699        -2.046935
 O        -3.441489         1.000081        -2.767869
 C        -3.619252         2.378480        -2.579974
 O        -3.140047         3.085110        -1.687884
 H         2.196363         0.139743         1.192254
 H         0.872298        -0.515390         2.091422
 H         1.500962        -1.507559         0.682934
 H        -3.148512         0.814163        -0.223597
 H        -4.079114        -1.194390        -0.969848
 H        -2.635198        -2.114703        -1.084622
 H        -3.135083        -1.552350         0.466850
 H        -1.551737         1.591186        -2.226425
 H        -1.701841        -0.197057        -2.665292
 H        -4.494131         2.663161        -3.140568
