19
Iteration:  2189
 C         0.974137         0.945343        -0.248553
 C        -0.404711         0.480657         0.050190
 C        -1.594855         0.091861        -0.006406
 C        -2.881328        -0.454053        -0.360037
 C        -2.908500        -1.933516        -0.812805
 C        -3.588017         0.395744        -1.506732
 O        -3.366478         1.810699        -1.241986
 C        -2.417537         2.470905        -1.899770
 O        -1.704340         1.968110        -2.710238
 H         1.778042         0.279615         0.168324
 H         1.211195         0.833899        -1.327855
 H         1.223684         2.017950         0.071045
 H        -3.605215        -0.291601         0.488266
 H        -3.715910        -1.921326        -1.579099
 H        -2.057318        -2.187514        -1.422267
 H        -3.124577        -2.672512        -0.075455
 H        -3.241652         0.122946        -2.529038
 H        -4.676068         0.216139        -1.431418
 H        -1.998871         3.397519        -1.319835
