19
Iteration:  1369charge 0 multiplicity 1
 C         0.994034         0.560657         0.946547
 C        -0.262289         0.163498         0.281714
 C        -1.267680         0.045316        -0.382578
 C        -2.677285        -0.157620        -0.783993
 C        -3.107753        -1.598066        -0.594223
 C        -2.755712         0.162976        -2.237123
 O        -2.175108         1.463314        -2.673018
 C        -2.770421         2.569949        -2.145171
 O        -3.668087         2.531766        -1.319283
 H         1.430436        -0.408461         1.432153
 H         1.670220         0.797762         0.080887
 H         0.903678         1.274197         1.769226
 H        -3.396224         0.526495        -0.260594
 H        -3.641003        -1.685433         0.378920
 H        -3.693210        -2.060460        -1.493862
 H        -2.185975        -2.300378        -0.559765
 H        -2.229365        -0.591556        -2.816332
 H        -3.785625         0.206130        -2.519356
 H        -2.622176         3.585626        -2.774860
