19
Iteration:  1728
 C         1.455858        -0.167761         0.897092
 C         0.101828        -0.006813         0.411082
 C        -1.059138        -0.143937         0.052290
 C        -2.478819        -0.146915        -0.450427
 C        -2.903517        -1.659911        -0.424458
 C        -2.735899         0.544416        -1.789500
 O        -2.590427         1.997196        -1.639955
 C        -3.337543         2.833759        -2.476374
 O        -4.051697         2.464320        -3.367177
 H         2.070664        -1.052441         0.562190
 H         2.049358         0.724022         0.603311
 H         1.456571        -0.172267         2.037097
 H        -3.092287         0.239595         0.349706
 H        -4.017000        -1.772474        -0.437368
 H        -2.518191        -2.435466        -1.080549
 H        -2.464666        -2.015901         0.551204
 H        -2.020338         0.175381        -2.577201
 H        -3.769116         0.371549        -2.144619
 H        -3.166383         3.763042        -2.037738
