19
Iteration:  4182
 C         1.301129        -1.245926         1.209333
 C         0.213811        -0.417260         0.544854
 C        -0.746250         0.130850         0.056239
 C        -2.145879         0.333762        -0.469920
 C        -2.527160        -0.995587        -1.232176
 C        -2.275296         1.669722        -1.260510
 O        -3.713193         1.981642        -1.362343
 C        -4.132884         2.176310        -2.595296
 O        -3.445616         2.154535        -3.580430
 H         1.158240        -1.199552         2.383077
 H         1.311206        -2.295591         0.895794
 H         2.200883        -0.813958         0.856519
 H        -2.895281         0.472365         0.384808
 H        -2.280588        -0.863199        -2.361003
 H        -1.995028        -1.906235        -0.974897
 H        -3.548853        -1.383517        -1.077892
 H        -1.827979         2.468132        -0.753115
 H        -1.792541         1.596558        -2.284799
 H        -5.282231         2.159362        -2.655152
