19
Iteration:  3781charge 0 multiplicity 1
 C         1.529114        -1.009284         0.896929
 C         0.221880        -0.438850         0.458912
 C        -0.753809        -0.036560        -0.191000
 C        -2.253906         0.305456        -0.334042
 C        -3.071813        -0.823444        -1.006731
 C        -2.438113         1.648217        -0.966958
 O        -3.796340         1.734144        -1.396540
 C        -3.890179         1.991611        -2.741186
 O        -3.055023         2.372252        -3.498738
 H         2.052936        -0.166575         1.316127
 H         1.297278        -1.868859         1.723350
 H         2.343634        -1.521252         0.147506
 H        -2.657965         0.358062         0.746936
 H        -3.837319        -1.279462        -0.309844
 H        -3.397404        -0.633184        -2.028033
 H        -2.575234        -1.808706        -1.154823
 H        -2.326411         2.336992        -0.228357
 H        -1.693297         1.769911        -1.778019
 H        -4.935907         1.695630        -3.147680
