19
Iteration:  4401
 C         1.362084        -0.144075         1.000846
 C         0.013303        -0.560525         0.657133
 C        -1.050404        -0.475154         0.083418
 C        -2.344449        -0.114887        -0.527853
 C        -2.993439        -1.336114        -1.274801
 C        -2.135936         1.197226        -1.330916
 O        -3.366623         1.862706        -1.355759
 C        -3.858296         2.467050        -2.452776
 O        -3.238466         2.601203        -3.474413
 H         2.041178        -0.185232         0.093004
 H         1.163155         0.766024         1.521832
 H         1.861211        -0.822354         1.726745
 H        -3.018916         0.175483         0.255705
 H        -4.066086        -1.296109        -1.489653
 H        -2.662180        -1.639476        -2.307891
 H        -2.888879        -2.336313        -0.814313
 H        -1.465670         1.743850        -0.697788
 H        -1.620367         1.100129        -2.287996
 H        -4.808025         2.894442        -2.212166
