19
Iteration:  4117charge 0 multiplicity 1
 C         1.411817        -1.027235         0.975779
 C         0.186165        -0.451904         0.624934
 C        -0.913805        -0.024737         0.271256
 C        -2.182883         0.210835        -0.391998
 C        -2.600943        -0.945488        -1.288765
 C        -2.236228         1.538881        -1.123659
 O        -3.619934         2.047877        -1.366701
 C        -4.046278         2.330972        -2.643831
 O        -3.516249         1.988614        -3.692667
 H         1.436760        -1.847205         1.853734
 H         1.905375        -1.444807         0.064353
 H         1.997649        -0.261322         1.435977
 H        -2.942538         0.315315         0.435478
 H        -1.790171        -1.726919        -1.317993
 H        -3.518691        -1.249048        -0.826351
 H        -2.938420        -0.386542        -2.162154
 H        -1.761283         2.284142        -0.530382
 H        -1.761656         1.637401        -2.174515
 H        -5.108687         2.740533        -2.553987
