19
Iteration:  2771
 C         1.224771         0.317598         1.048055
 C        -0.019194        -0.015492         0.208253
 C        -1.076878        -0.292989        -0.280853
 C        -2.564788        -0.466035        -0.494049
 C        -2.989965        -1.854402        -0.971404
 C        -3.217761         0.634943        -1.392487
 O        -2.716238         1.986650        -1.210428
 C        -2.776229         2.690667        -2.363946
 O        -3.451263         2.607442        -3.385321
 H         0.883477         1.262111         1.390409
 H         1.156723        -0.522135         1.730596
 H         2.170224         0.617513         0.644490
 H        -3.088490        -0.444937         0.495514
 H        -4.071642        -1.779055        -1.398775
 H        -2.406816        -2.130339        -1.913986
 H        -2.986473        -2.792547        -0.319888
 H        -2.975350         0.501153        -2.426918
 H        -4.302941         0.514228        -1.114805
 H        -1.869038         3.337184        -2.236141
