19
Iteration:   991
 C         1.316736         0.091682         0.956483
 C         0.034693         0.015817         0.259638
 C        -1.148683         0.168405        -0.018003
 C        -2.552542        -0.051630        -0.627379
 C        -3.071112        -1.523918        -0.454415
 C        -2.743494         0.230017        -2.134759
 O        -2.340993         1.474022        -2.672142
 C        -3.006063         2.653467        -2.338537
 O        -4.092314         2.696508        -1.801216
 H         1.759402        -0.899689         0.976357
 H         2.015775         0.644490         0.240696
 H         1.362497         0.653957         2.062926
 H        -3.291845         0.680309        -0.182646
 H        -3.765003        -1.471441         0.370572
 H        -3.465500        -1.949034        -1.374683
 H        -2.224912        -2.100474        -0.043513
 H        -2.242760        -0.612003        -2.668976
 H        -3.841758         0.066214        -2.263635
 H        -2.550997         3.487415        -2.892158
