19
Iteration:   952
 C         1.304437         0.021942         0.914265
 C        -0.008246         0.153500         0.252278
 C        -1.086670         0.024211        -0.286047
 C        -2.483647        -0.008135        -0.636222
 C        -3.202567        -1.462067        -0.280138
 C        -2.691969         0.278749        -2.047792
 O        -2.158003         1.603647        -2.452629
 C        -3.051857         2.669129        -2.340501
 O        -4.220510         2.508317        -2.009397
 H         1.801361        -0.811119         0.335520
 H         1.949863         0.857482         0.905849
 H         1.253019        -0.330259         1.853455
 H        -2.974276         0.646774         0.059449
 H        -3.556734        -1.570665         0.765020
 H        -4.096901        -1.715934        -0.903431
 H        -2.457887        -2.284043        -0.316056
 H        -2.165280        -0.332580        -2.764360
 H        -3.728149         0.255909        -2.317566
 H        -2.543417         3.599779        -2.772245
