19
Iteration:  2892
 C         1.321219        -0.163370         0.838214
 C        -0.133845        -0.213332         0.564168
 C        -1.215529        -0.020193         0.160689
 C        -2.498807        -0.253735        -0.467219
 C        -2.747696        -1.730233        -0.744921
 C        -2.585795         0.511476        -1.744299
 O        -2.946135         1.913603        -1.477406
 C        -3.284484         2.885605        -2.298416
 O        -3.575514         2.759562        -3.469954
 H         1.742995         0.162089        -0.106605
 H         1.662345         0.313904         1.816621
 H         1.693205        -1.207713         0.918727
 H        -3.308587         0.206096         0.135634
 H        -3.593921        -1.990220        -1.450163
 H        -1.895016        -2.243518        -1.206030
 H        -3.038885        -2.270264         0.125226
 H        -1.650785         0.355118        -2.299700
 H        -3.364289         0.158050        -2.424014
 H        -3.394060         3.801492        -1.687185
