19
Iteration:  3906
 C         1.462617        -0.586418         0.430121
 C        -0.000772        -0.379774         0.582401
 C        -1.209017        -0.262146         0.435338
 C        -2.459436         0.125441        -0.255592
 C        -2.893707        -0.811374        -1.352386
 C        -2.211741         1.530406        -0.982454
 O        -3.500843         1.948418        -1.307104
 C        -3.832336         2.117989        -2.579068
 O        -3.022752         1.966362        -3.486099
 H         1.638621        -0.215138        -0.671207
 H         2.040445         0.112244         0.938416
 H         1.735712        -1.651499         0.449640
 H        -3.249514         0.349525         0.481321
 H        -3.266792        -0.580546        -2.324399
 H        -2.101418        -1.624546        -1.474867
 H        -3.602485        -1.570282        -0.961787
 H        -1.811303         2.177035        -0.130718
 H        -1.577247         1.577008        -1.826486
 H        -4.928613         2.194732        -2.748617
