19
Iteration:   854charge 0 multiplicity 1
 C         1.528954        -0.100053         0.706644
 C         0.095146         0.051768         0.358586
 C        -1.102227        -0.183320         0.130738
 C        -2.444245        -0.033610        -0.464380
 C        -3.304014        -1.254284        -0.319943
 C        -2.629482         0.421125        -1.981014
 O        -2.152516         1.793333        -2.205526
 C        -3.185229         2.661758        -2.391083
 O        -4.386720         2.336957        -2.500169
 H         2.097251         0.760119         0.089019
 H         1.968985        -0.050403         1.713214
 H         1.916373        -1.043473         0.173523
 H        -3.000907         0.728826         0.045846
 H        -3.358223        -1.836055         0.610071
 H        -4.339062        -0.951111        -0.539927
 H        -3.079262        -2.054372        -1.044696
 H        -2.001404        -0.136580        -2.660238
 H        -3.608236         0.391698        -2.376223
 H        -2.700709         3.573563        -2.822636
