19
Iteration:  3677charge 0 multiplicity 1
 C         1.506754        -0.791262         0.768101
 C         0.118362        -0.351048         0.733550
 C        -0.996814        -0.139257         0.279234
 C        -2.246328         0.011455        -0.401866
 C        -2.843430        -1.244188        -1.058747
 C        -2.300307         1.333312        -1.445062
 O        -3.552591         1.974922        -1.385929
 C        -3.997432         2.533246        -2.547489
 O        -3.318609         2.360126        -3.547330
 H         1.950171        -0.871737         1.843573
 H         1.737767        -1.739446         0.408427
 H         2.276927        -0.191831         0.377745
 H        -2.866170         0.300153         0.465727
 H        -3.331871        -1.114173        -2.011125
 H        -2.055248        -1.958913        -1.328645
 H        -3.442084        -1.756106        -0.341434
 H        -1.480716         2.117165        -1.169130
 H        -1.971797         0.922382        -2.410921
 H        -5.011949         2.940332        -2.467946
