19
Iteration:   777
 C         1.452319        -0.233145         0.665674
 C         0.106148        -0.121453         0.154757
 C        -1.121076         0.053303         0.136263
 C        -2.450048         0.091476        -0.324701
 C        -3.082841        -1.397304        -0.108928
 C        -2.595706         0.391920        -1.859257
 O        -2.279420         1.803631        -2.123664
 C        -3.268009         2.697069        -2.359238
 O        -4.342334         2.456035        -2.922286
 H         1.724804         0.358029         1.604249
 H         1.737523        -1.301301         0.685779
 H         2.162044        -0.077434        -0.208605
 H        -3.053240         0.810054         0.250495
 H        -3.247170        -1.464363         0.954167
 H        -4.030252        -1.571499        -0.587985
 H        -2.541186        -2.241996        -0.529488
 H        -1.948508        -0.204060        -2.472262
 H        -3.616161         0.304881        -2.162131
 H        -2.958941         3.687652        -2.103293
