19
Iteration:   954
 C         1.290444         0.018168         0.916402
 C         0.011271         0.165684         0.244664
 C        -1.085717         0.023485        -0.283171
 C        -2.489880        -0.019621        -0.620078
 C        -3.188826        -1.441988        -0.307563
 C        -2.691782         0.284044        -2.044571
 O        -2.167810         1.576616        -2.464686
 C        -3.053320         2.665350        -2.326977
 O        -4.223374         2.523691        -1.999724
 H         1.798584        -0.830437         0.368240
 H         1.948275         0.882662         0.849936
 H         1.331520        -0.336891         1.999310
 H        -3.057073         0.615641         0.059377
 H        -3.600412        -1.509825         0.724732
 H        -4.046386        -1.731839        -0.940844
 H        -2.458501        -2.238683        -0.327123
 H        -2.115648        -0.356384        -2.729720
 H        -3.769489         0.264440        -2.340529
 H        -2.499592         3.529668        -2.813991
