19
Iteration:   311charge 0 multiplicity 1
 C         1.297854         0.404264        -0.479646
 C        -0.132389         0.105183        -0.374404
 C        -1.327419         0.153955        -0.193080
 C        -2.772345        -0.114674        -0.052322
 C        -3.299011        -1.589857         0.142563
 C        -3.472540         0.613517        -1.190494
 O        -3.148971         1.959691        -1.146238
 C        -2.655413         2.472227        -2.332117
 O        -2.237490         1.789128        -3.239442
 H         2.066654        -0.223409         0.132387
 H         1.618231         0.010801        -1.463705
 H         1.537176         1.478864        -0.490159
 H        -3.069437         0.477524         0.887986
 H        -3.122494        -1.841729         1.211149
 H        -4.297604        -1.897015        -0.196605
 H        -2.670965        -2.337239        -0.381902
 H        -3.312229         0.048957        -2.181698
 H        -4.514170         0.443651        -0.915541
 H        -2.907582         3.542662        -2.308660
