19
Iteration:  1361charge 0 multiplicity 1
 C         1.032013         0.585747         0.893193
 C        -0.267860         0.192699         0.345649
 C        -1.293900         0.032503        -0.339770
 C        -2.697728        -0.190647        -0.810928
 C        -3.124611        -1.670554        -0.565150
 C        -2.846249         0.130981        -2.283522
 O        -2.096218         1.534452        -2.652920
 C        -2.789142         2.526537        -2.164821
 O        -3.630597         2.553456        -1.306009
 H         1.435847        -0.411891         1.203525
 H         1.685344         1.108136         0.112443
 H         0.803216         1.244578         1.668322
 H        -3.331975         0.532620        -0.338450
 H        -3.891695        -1.858911         0.175850
 H        -3.516884        -2.192516        -1.404566
 H        -2.216249        -2.222520        -0.315255
 H        -2.340583        -0.521002        -2.999287
 H        -3.896342         0.313425        -2.557604
 H        -2.454597         3.540116        -2.712915
