19
Iteration:  4296charge 0 multiplicity 1
 C         1.334551        -0.719505         1.103387
 C         0.097628        -0.428994         0.612366
 C        -0.960619        -0.162817         0.079451
 C        -2.254871         0.042726        -0.537007
 C        -2.674818        -1.216907        -1.314803
 C        -2.213908         1.380334        -1.281921
 O        -3.552891         2.070036        -1.256956
 C        -3.977630         2.439087        -2.539907
 O        -3.377132         2.237113        -3.587558
 H         1.877241         0.138273         1.433329
 H         1.325525        -1.207929         2.155190
 H         1.709868        -1.584597         0.558533
 H        -2.999698         0.215135         0.312854
 H        -3.694648        -1.326845        -1.616843
 H        -2.046318        -1.266960        -2.277589
 H        -2.385086        -2.163584        -0.822698
 H        -1.562509         2.170943        -0.682421
 H        -1.866491         1.294793        -2.306721
 H        -4.924284         3.039925        -2.339509
