19
Iteration:  4518
 C         1.570077        -0.597631         1.012753
 C         0.214720        -0.482324         0.497519
 C        -0.959329        -0.146745         0.185364
 C        -2.368116        -0.069036        -0.374625
 C        -2.782159        -1.339850        -0.983620
 C        -2.438730         1.203528        -1.270886
 O        -3.864000         1.586295        -1.683447
 C        -3.941567         2.428808        -2.768253
 O        -3.012195         3.009437        -3.293957
 H         1.706694        -1.619379         1.085487
 H         2.295327        -0.077100         0.438296
 H         1.752017        -0.236121         2.078385
 H        -3.034737         0.076921         0.536028
 H        -3.704812        -1.125051        -1.577665
 H        -2.074591        -1.681873        -1.660776
 H        -2.949693        -2.113681        -0.239533
 H        -2.000876         2.104444        -0.874121
 H        -1.734193         1.078552        -2.193496
 H        -5.015393         2.339450        -3.174455
