19
Iteration:   534
 C         1.504655        -0.043466         0.094250
 C         0.073803         0.043596         0.168688
 C        -1.145543        -0.098444         0.164256
 C        -2.677514        -0.126776        -0.183003
 C        -3.130381        -1.565208         0.092736
 C        -3.009432         0.519790        -1.550247
 O        -2.697890         1.929548        -1.476401
 C        -3.021122         2.727017        -2.514568
 O        -3.555347         2.331822        -3.529562
 H         1.573837         0.287636        -0.893140
 H         2.066318         0.637153         0.726412
 H         2.078516        -1.020448         0.092784
 H        -3.157704         0.550250         0.627649
 H        -2.715023        -1.987103         1.009503
 H        -4.199544        -1.682253         0.251542
 H        -2.689964        -2.276230        -0.633056
 H        -2.303442         0.022952        -2.177378
 H        -4.042286         0.302756        -1.836744
 H        -2.913011         3.740367        -1.984616
