19
Iteration:  4544charge 0 multiplicity 1
 C         1.498909        -0.721138         0.872814
 C         0.126656        -0.384166         0.600263
 C        -1.043245        -0.069863         0.364456
 C        -2.370018         0.072198        -0.289590
 C        -2.738569        -1.287205        -1.012696
 C        -2.354019         1.242436        -1.333803
 O        -3.708854         1.355536        -1.799280
 C        -3.914845         2.358033        -2.718325
 O        -3.099719         3.099060        -3.266784
 H         1.511699        -1.842120         1.195087
 H         2.115249        -0.468660        -0.016399
 H         1.999517        -0.196306         1.666832
 H        -3.117887         0.232102         0.518608
 H        -3.815844        -1.447803        -1.137811
 H        -2.278011        -1.245269        -2.089940
 H        -2.419957        -2.246366        -0.552642
 H        -2.072266         2.298522        -1.042368
 H        -1.682433         0.937659        -2.119722
 H        -5.000945         2.420085        -2.799058
