19
Iteration:  4238charge 0 multiplicity 1
 C         1.475361        -1.035043         1.291637
 C         0.233146        -0.576656         0.644743
 C        -0.824797        -0.204552         0.075743
 C        -2.134328         0.340487        -0.452470
 C        -2.824927        -0.725070        -1.393225
 C        -2.153680         1.622322        -1.144224
 O        -3.557831         1.768792        -1.400118
 C        -4.048488         2.049663        -2.611521
 O        -3.607162         2.338910        -3.710289
 H         1.788730        -0.257234         2.062822
 H         1.113475        -1.969646         1.756001
 H         2.349200        -1.057588         0.791638
 H        -2.885237         0.387925         0.391541
 H        -3.322285        -0.180425        -2.196430
 H        -2.038080        -1.352861        -1.768215
 H        -3.509042        -1.115395        -0.682537
 H        -1.959899         2.486705        -0.590849
 H        -1.628636         1.732819        -2.120197
 H        -5.177107         2.165530        -2.454168
