19
Iteration:  4962
 C         1.177999         0.202042         1.118864
 C         0.038949        -0.137531         0.327925
 C        -1.095795        -0.394035        -0.136587
 C        -2.352950        -0.064473        -0.748359
 C        -3.440168        -1.223296        -0.752982
 C        -2.027996         0.587445        -2.121974
 O        -3.402730         1.073998        -2.651441
 C        -3.598750         2.348149        -2.278016
 O        -2.892253         3.135007        -1.618890
 H         2.011144        -0.350231         0.702655
 H         1.465084         1.307646         0.947548
 H         1.138875        -0.023478         2.175148
 H        -2.654341         0.714902        -0.081894
 H        -4.425166        -0.824847        -0.544166
 H        -3.525538        -1.790550        -1.642900
 H        -3.331729        -1.915903         0.074304
 H        -1.331097         1.350334        -2.181331
 H        -1.751866        -0.107997        -2.903078
 H        -4.507957         2.693306        -2.753826
