19
Iteration:  3674
 C         1.497668        -0.785114         0.793529
 C         0.109988        -0.332709         0.706984
 C        -0.993782        -0.130444         0.273125
 C        -2.252355        -0.012320        -0.389360
 C        -2.826090        -1.239473        -1.057669
 C        -2.304506         1.289038        -1.450588
 O        -3.540781         1.992742        -1.363772
 C        -3.982406         2.549604        -2.544309
 O        -3.327520         2.366512        -3.563501
 H         1.853767        -0.957855         1.791075
 H         1.737426        -1.726568         0.355192
 H         2.208596        -0.076050         0.305412
 H        -2.928313         0.262028         0.403001
 H        -3.348203        -1.035049        -2.052296
 H        -2.022286        -1.952538        -1.195405
 H        -3.389429        -1.827677        -0.319553
 H        -1.483786         1.966753        -1.164213
 H        -1.981981         0.870625        -2.483020
 H        -4.978683         2.902889        -2.416490
