19
Iteration:   397charge 0 multiplicity 1
 C         1.422073         0.164987        -0.163470
 C         0.001039        -0.020933        -0.037903
 C        -1.182172         0.171753        -0.154166
 C        -2.649580        -0.100015        -0.076207
 C        -3.111383        -1.602364         0.004560
 C        -3.562798         0.619316        -1.191747
 O        -3.059258         1.977797        -1.230452
 C        -2.668475         2.483539        -2.426414
 O        -2.855537         2.000176        -3.522465
 H         1.657172         1.007949         0.601899
 H         2.008805        -0.707489        -0.212308
 H         1.674242         0.631734        -1.039782
 H        -3.019214         0.297605         0.931108
 H        -2.335200        -2.232618         0.448219
 H        -3.943784        -1.553252         0.676712
 H        -3.413528        -2.010793        -0.969504
 H        -3.489221         0.219655        -2.237649
 H        -4.581002         0.799898        -0.935736
 H        -2.112666         3.525373        -2.313818
