19
Iteration:  1771charge 0 multiplicity 1
 C         1.371537        -0.143567         0.887567
 C         0.038540        -0.034345         0.360873
 C        -1.066046         0.031254        -0.109854
 C        -2.424909        -0.094739        -0.460448
 C        -2.801447        -1.627168        -0.483178
 C        -2.963375         0.495661        -1.633704
 O        -2.749073         1.945421        -1.460740
 C        -3.182967         2.724557        -2.449604
 O        -3.840838         2.418280        -3.415188
 H         1.751353        -1.164048         1.033602
 H         2.246991         0.146767         0.316168
 H         1.440542         0.520505         1.844288
 H        -2.949867         0.518086         0.248126
 H        -3.297877        -2.061394         0.444844
 H        -3.488510        -1.825548        -1.326782
 H        -1.859275        -2.234654        -0.771273
 H        -2.382946         0.309296        -2.607305
 H        -4.030152         0.234161        -1.817197
 H        -2.879192         3.757038        -2.333542
