19
Iteration:  3582charge 0 multiplicity 1
 C         1.426466        -0.334271         1.112154
 C         0.068627        -0.392264         0.689295
 C        -0.871053        -0.288936        -0.075938
 C        -2.292831        -0.171575        -0.536615
 C        -3.026407        -1.438621        -0.915755
 C        -2.323655         0.807094        -1.686365
 O        -3.149092         2.075139        -1.360803
 C        -3.792085         2.771320        -2.359685
 O        -3.597378         2.532619        -3.546535
 H         1.578189        -1.216067         1.698925
 H         2.278044        -0.363142         0.306216
 H         1.740650         0.484172         1.786039
 H        -2.870294         0.301117         0.307965
 H        -4.115839        -1.356588        -0.843102
 H        -2.953889        -1.768515        -2.011904
 H        -2.628313        -2.305829        -0.352114
 H        -1.384284         1.053760        -2.184138
 H        -2.909579         0.518570        -2.513977
 H        -4.292970         3.732136        -2.039988
