19
Iteration:  4849
 C         1.246360        -0.282081         1.147954
 C        -0.033316        -0.014992         0.456776
 C        -1.056117         0.111026        -0.111076
 C        -2.366659         0.220571        -0.730167
 C        -3.094513        -1.216560        -0.538727
 C        -2.203649         0.451834        -2.264723
 O        -3.386243         1.138770        -2.884031
 C        -3.690914         2.383767        -2.398016
 O        -3.028019         2.990939        -1.558088
 H         2.161584         0.287711         0.728211
 H         1.064081        -0.024505         2.188284
 H         1.445665        -1.380221         1.294942
 H        -2.951354         0.975183        -0.257559
 H        -3.936317        -1.288374        -1.266345
 H        -2.376946        -2.019039        -0.640183
 H        -3.636648        -1.125085         0.412922
 H        -1.106918         0.863833        -2.530117
 H        -2.137930        -0.588879        -2.651328
 H        -4.734858         2.616230        -2.584450
