19
Iteration:  4830charge 0 multiplicity 1
 C         1.186772        -0.410827         1.143227
 C         0.071753         0.103133         0.356788
 C        -1.097384         0.110317        -0.036685
 C        -2.409469         0.188436        -0.639812
 C        -3.047528        -1.162259        -0.579794
 C        -2.240195         0.516602        -2.179254
 O        -3.352390         1.068759        -2.787741
 C        -3.706427         2.338041        -2.448267
 O        -3.073757         3.029583        -1.650750
 H         2.083995         0.193253         0.850690
 H         1.104582        -0.449826         2.272205
 H         1.423814        -1.416943         0.878218
 H        -2.906620         1.060585        -0.135729
 H        -3.953356        -1.187640        -1.300979
 H        -2.236387        -1.762722        -0.926556
 H        -3.285337        -1.467048         0.448700
 H        -1.367470         1.170949        -2.123103
 H        -2.001795        -0.444831        -2.703884
 H        -4.362041         2.762955        -3.268426
