19
Iteration:  4516
 C         1.559935        -0.587175         1.031450
 C         0.219886        -0.476299         0.493588
 C        -0.959763        -0.168864         0.154298
 C        -2.372387        -0.070505        -0.378846
 C        -2.790888        -1.355988        -0.983839
 C        -2.461798         1.221257        -1.280279
 O        -3.871165         1.587704        -1.660701
 C        -3.909277         2.418039        -2.761692
 O        -3.012028         3.008068        -3.302859
 H         1.747606        -1.636270         1.043645
 H         2.328971        -0.027467         0.417948
 H         1.727880        -0.233833         2.085371
 H        -2.960455         0.070665         0.551398
 H        -3.670581        -1.045680        -1.631782
 H        -2.028147        -1.692497        -1.633179
 H        -2.964625        -2.094057        -0.165223
 H        -1.982872         2.126613        -0.913509
 H        -1.739899         1.101900        -2.146533
 H        -4.997571         2.370196        -3.128838
