19
Iteration:   354
 C         1.295649         0.230197        -0.256230
 C        -0.125538         0.283745        -0.335872
 C        -1.228063        -0.071049        -0.151015
 C        -2.638760        -0.087847        -0.034027
 C        -3.149428        -1.572729         0.052968
 C        -3.458661         0.615330        -1.101559
 O        -3.186990         2.002057        -1.229090
 C        -2.585854         2.449311        -2.339580
 O        -2.586478         1.889931        -3.434789
 H         1.652006         0.188017         0.939093
 H         1.525113        -0.633188        -0.902635
 H         1.682232         1.088063        -0.782311
 H        -2.868527         0.479743         0.985395
 H        -2.550322        -2.134364         0.781519
 H        -4.208547        -1.468560         0.240676
 H        -3.201146        -2.017373        -0.960174
 H        -3.248125         0.152567        -2.133484
 H        -4.517682         0.508430        -0.909370
 H        -2.402105         3.622440        -2.293368
