19
Iteration:  2415
 C         1.168409         0.214229         0.329154
 C        -0.238200         0.251989         0.312896
 C        -1.347874        -0.013240        -0.017101
 C        -2.721044        -0.317114        -0.370588
 C        -2.666139        -1.830755        -0.760967
 C        -3.399720         0.458092        -1.540268
 O        -3.544304         1.965243        -1.336686
 C        -2.882649         2.667586        -2.213667
 O        -2.182014         2.329436        -3.129767
 H         1.473832         1.096508        -0.309878
 H         1.686282         0.522182         1.224972
 H         1.702222        -0.682702         0.145419
 H        -3.302727        -0.129865         0.553637
 H        -1.862468        -2.249805        -0.069898
 H        -3.556145        -2.487092        -0.611633
 H        -2.489234        -1.842040        -1.863284
 H        -2.802294         0.291362        -2.447687
 H        -4.427024         0.058449        -1.490394
 H        -2.965731         3.775851        -2.164999
