19
Iteration:  3988charge 0 multiplicity 1
 C         1.491671        -0.387187         0.841254
 C         0.091734        -0.444985         0.287703
 C        -1.030360        -0.338571        -0.176096
 C        -2.440934        -0.018482        -0.432073
 C        -3.136811        -1.033048        -1.248048
 C        -2.332052         1.403766        -0.880748
 O        -3.431980         2.243314        -1.255256
 C        -3.680531         2.405174        -2.572822
 O        -3.147200         1.694296        -3.414540
 H         2.162742        -0.999227         0.340344
 H         1.784652         0.715950         0.963566
 H         1.401867        -0.600547         1.924972
 H        -2.851928         0.014117         0.561763
 H        -4.287552        -0.836957        -1.018208
 H        -2.944611        -0.892914        -2.312437
 H        -2.924514        -1.998809        -0.777721
 H        -2.051561         1.865543         0.045549
 H        -1.532372         1.608774        -1.709995
 H        -4.273323         3.287353        -2.773664
