19
Iteration:  3629
 C         1.363770        -0.579834         0.947993
 C         0.106052        -0.328563         0.351707
 C        -1.088017        -0.174331         0.311056
 C        -2.393148        -0.064559        -0.444126
 C        -2.744293        -1.418523        -0.927134
 C        -2.235314         0.977261        -1.519445
 O        -3.338814         2.069708        -1.367021
 C        -3.800575         2.697887        -2.445948
 O        -3.512026         2.450049        -3.576358
 H         1.468184        -1.093016         1.849684
 H         2.112357        -1.130814         0.357408
 H         2.065527         0.284959         1.065748
 H        -3.135586         0.353909         0.224024
 H        -3.753015        -1.293282        -1.432354
 H        -2.148884        -1.917965        -1.714406
 H        -2.788578        -2.194703        -0.093956
 H        -1.347423         1.541282        -1.329408
 H        -2.094019         0.599525        -2.619541
 H        -4.511441         3.460635        -2.141383
