19
Iteration:  4832charge 0 multiplicity 1
 C         1.185197        -0.393569         1.143174
 C         0.051568         0.093005         0.358413
 C        -1.075948         0.100683        -0.036664
 C        -2.408024         0.189255        -0.647129
 C        -3.056537        -1.150773        -0.570867
 C        -2.235503         0.511490        -2.180090
 O        -3.346241         1.084933        -2.793340
 C        -3.701399         2.329465        -2.439573
 O        -3.069778         3.020880        -1.645666
 H         2.049880         0.152346         0.867608
 H         1.110910        -0.379542         2.274488
 H         1.392510        -1.401930         0.847194
 H        -2.907094         1.091445        -0.149704
 H        -3.877981        -1.193836        -1.326338
 H        -2.202262        -1.802749        -0.895112
 H        -3.290455        -1.530353         0.437547
 H        -1.430636         1.151066        -2.223422
 H        -2.124420        -0.440803        -2.730564
 H        -4.403672         2.740798        -3.234188
