19
Iteration:  1222
 C         0.906835         0.959400         0.380772
 C        -0.403088         0.320480         0.261971
 C        -1.420791        -0.197833        -0.192775
 C        -2.817676        -0.317921        -0.758259
 C        -3.189777        -1.849340        -0.689148
 C        -2.835436         0.182980        -2.155079
 O        -1.979215         1.268375        -2.337604
 C        -2.502899         2.504184        -1.974759
 O        -3.521606         2.790221        -1.390083
 H         1.187848         1.562164        -0.399957
 H         0.929037         1.533148         1.283594
 H         1.632951         0.108277         0.553159
 H        -3.557862         0.228348        -0.114536
 H        -2.320248        -2.505369        -0.935088
 H        -3.766006        -2.073087         0.190282
 H        -3.932308        -2.081316        -1.469858
 H        -2.479905        -0.621060        -2.834367
 H        -3.851974         0.520459        -2.474813
 H        -1.871592         3.389136        -2.230752
