19
Iteration:  1037
 C         1.178647         0.187649         0.829414
 C        -0.257803         0.211409         0.436976
 C        -1.219402         0.025047        -0.240512
 C        -2.545654        -0.163211        -0.749645
 C        -2.957431        -1.556149        -0.340905
 C        -2.795549         0.230322        -2.241100
 O        -2.261456         1.505058        -2.662925
 C        -3.036767         2.569950        -2.399834
 O        -3.819636         2.720409        -1.506002
 H         1.478665        -0.487600         1.685951
 H         1.869843        -0.028590        -0.018945
 H         1.481677         1.327000         1.176744
 H        -3.294309         0.469879        -0.259226
 H        -3.748311        -1.443483         0.387057
 H        -3.259060        -2.088674        -1.253541
 H        -2.136800        -2.098242         0.158209
 H        -2.225576        -0.510794        -2.785075
 H        -3.840218         0.130670        -2.454898
 H        -2.638803         3.296787        -3.089337
