19
Iteration:  4316
 C         1.397839        -0.681809         1.113945
 C         0.033636        -0.279565         0.605308
 C        -1.064476        -0.159899         0.110017
 C        -2.409865        -0.019902        -0.586017
 C        -2.662918        -1.325224        -1.371789
 C        -2.259870         1.321727        -1.321470
 O        -3.498318         2.004835        -1.290301
 C        -3.842070         2.627672        -2.476218
 O        -3.334607         2.182357        -3.484203
 H         2.079457         0.209222         0.937305
 H         1.693288        -0.931104         2.183693
 H         1.672520        -1.500438         0.556626
 H        -3.235947        -0.020692         0.175902
 H        -3.659936        -1.534554        -1.173986
 H        -2.293448        -1.132796        -2.436140
 H        -2.109440        -2.130173        -0.896901
 H        -1.523201         2.011779        -0.821283
 H        -2.090238         1.168870        -2.348081
 H        -4.757337         3.296747        -2.304802
