19
Iteration:   268
 C         1.175231         0.508170        -0.779358
 C        -0.141843         0.093783        -0.269814
 C        -1.340246        -0.050501        -0.066190
 C        -2.828691        -0.105925         0.086873
 C        -3.235730        -1.606182         0.218041
 C        -3.481229         0.590135        -1.124763
 O        -3.437302         2.018546        -1.425432
 C        -2.450821         2.399888        -2.210820
 O        -2.022329         1.867543        -3.196400
 H         1.925492        -0.253939        -0.780884
 H         1.285371         0.753465        -1.873620
 H         1.486860         1.385819        -0.145130
 H        -3.163951         0.446594         0.957021
 H        -2.776617        -1.994878         1.168029
 H        -4.318375        -1.871489         0.246339
 H        -2.770907        -2.228716        -0.601491
 H        -3.201568         0.032677        -2.093791
 H        -4.572559         0.484334        -1.004626
 H        -2.095059         3.335162        -1.803704
