19
Iteration:  1691
 C         1.522271        -0.097246         0.895352
 C         0.089983        -0.233145         0.374295
 C        -1.093738         0.007075         0.066038
 C        -2.529049        -0.077943        -0.360169
 C        -3.022513        -1.535025        -0.530705
 C        -2.588235         0.514797        -1.796744
 O        -2.492488         1.946566        -1.773292
 C        -3.330626         2.723609        -2.389726
 O        -4.132849         2.393491        -3.204089
 H         2.247469        -0.465694         0.204736
 H         1.605348         0.989738         0.971947
 H         1.732073        -0.517261         1.968475
 H        -3.298732         0.410280         0.221397
 H        -3.516962        -1.698403        -1.492606
 H        -2.195414        -2.269562        -0.357860
 H        -3.883529        -1.407014         0.121621
 H        -1.655597         0.155259        -2.289935
 H        -3.473174         0.197738        -2.399545
 H        -3.362758         3.770651        -2.054865
