19
Iteration:  3535
 C         1.300621        -0.253362         1.287011
 C         0.195621        -0.303571         0.380751
 C        -0.930636        -0.250171        -0.105643
 C        -2.250120        -0.168914        -0.593168
 C        -3.147668        -1.559927        -0.800501
 C        -2.388895         0.696786        -1.918820
 O        -2.970377         1.981577        -1.408268
 C        -3.555679         2.839609        -2.249810
 O        -3.732641         2.585577        -3.403445
 H         1.808970        -1.274869         1.562542
 H         2.075109         0.435360         0.936854
 H         0.954957         0.237470         2.201598
 H        -2.825933         0.400424         0.192845
 H        -4.056758        -1.344442        -1.362720
 H        -2.654546        -2.288785        -1.429786
 H        -3.348572        -2.108937         0.097686
 H        -1.529287         1.061064        -2.471263
 H        -3.040188         0.306939        -2.654445
 H        -4.039097         3.731463        -1.729115
