19
Iteration:  1580charge 0 multiplicity 1
 C         1.325883         0.011130         0.917446
 C        -0.010540        -0.121990         0.384321
 C        -1.185094        -0.054341         0.038316
 C        -2.581745        -0.019700        -0.577252
 C        -3.037947        -1.402224        -0.495794
 C        -2.429325         0.460158        -2.048206
 O        -2.080885         1.863818        -2.128973
 C        -3.259904         2.678191        -2.284807
 O        -4.394115         2.302115        -2.572385
 H         1.761868         0.993672         0.591311
 H         1.522292        -0.155498         2.017099
 H         1.930155        -0.754396         0.440249
 H        -3.221592         0.612435         0.031682
 H        -3.548832        -1.693142         0.494968
 H        -3.825894        -1.697832        -1.192871
 H        -2.283229        -2.144891        -0.671507
 H        -1.620742        -0.049939        -2.533314
 H        -3.342839         0.250811        -2.620436
 H        -2.856687         3.600126        -2.180634
