19
Iteration:  4703charge 0 multiplicity 1
 C         1.475266        -0.657965         1.146288
 C         0.216150        -0.330600         0.454866
 C        -0.898286        -0.338810         0.037564
 C        -2.249199         0.093677        -0.366602
 C        -3.218527        -0.988772        -0.749549
 C        -2.104032         1.099292        -1.533716
 O        -3.300356         1.099892        -2.368677
 C        -3.943848         2.261033        -2.805989
 O        -3.552759         3.345868        -2.559883
 H         1.822957        -0.104808         1.982477
 H         1.665675        -1.736323         1.364748
 H         2.202549        -0.365746         0.253091
 H        -2.545653         0.618954         0.493259
 H        -3.872488        -0.798635        -1.592570
 H        -2.584286        -1.867124        -0.881790
 H        -3.866071        -1.087625         0.113878
 H        -1.836669         2.066466        -1.200381
 H        -1.174212         0.752483        -2.055774
 H        -4.731391         1.967647        -3.459112
