19
Iteration:  4602
 C         1.406582        -0.946731         0.823637
 C         0.145734        -0.247904         0.648096
 C        -1.030528         0.078321         0.432482
 C        -2.316088         0.177774        -0.297823
 C        -2.774570        -1.144538        -0.884739
 C        -2.257099         1.209216        -1.347307
 O        -3.538679         1.142877        -2.080439
 C        -3.865915         2.187171        -2.916795
 O        -3.329495         3.285745        -2.936964
 H         1.582753        -1.813554         1.508448
 H         1.588213        -1.577274        -0.135011
 H         2.140346        -0.118063         0.972151
 H        -3.159296         0.483286         0.304404
 H        -3.930252        -1.284521        -0.825740
 H        -2.654089        -1.284226        -1.978932
 H        -2.180812        -2.018487        -0.463837
 H        -2.264904         2.175225        -0.843134
 H        -1.363341         1.118221        -1.985794
 H        -4.803691         1.945994        -3.397710
