19
Iteration:  2814charge 0 multiplicity 1
 C         1.175039         0.135822         1.046522
 C        -0.061339        -0.158547         0.301556
 C        -1.108403        -0.131566        -0.322024
 C        -2.547849        -0.284080        -0.526012
 C        -2.876509        -1.721901        -0.949480
 C        -3.142099         0.649881        -1.519565
 O        -2.593335         1.938189        -1.255697
 C        -2.997156         2.757108        -2.298179
 O        -3.482773         2.469614        -3.382258
 H         1.407274         1.208742         1.245476
 H         0.978381        -0.283843         2.145733
 H         2.105628        -0.364028         0.851853
 H        -3.022529        -0.079677         0.465615
 H        -3.879083        -2.177042        -0.788149
 H        -2.622838        -2.160999        -1.927475
 H        -2.229980        -2.407390        -0.382926
 H        -2.797906         0.339579        -2.470877
 H        -4.237581         0.849205        -1.332433
 H        -2.994737         3.826037        -2.039112
