19
Iteration:  1766
 C         1.378413        -0.170204         0.901445
 C         0.038426        -0.021178         0.389012
 C        -1.051326         0.053743        -0.119560
 C        -2.410926        -0.145693        -0.492330
 C        -2.831590        -1.646107        -0.485333
 C        -2.917578         0.544476        -1.651659
 O        -2.736147         1.927091        -1.442917
 C        -3.193917         2.708422        -2.484398
 O        -3.877163         2.441190        -3.406925
 H         1.686442        -1.224930         0.980134
 H         2.094096         0.387406         0.209652
 H         1.405828         0.425966         1.779809
 H        -2.944261         0.435335         0.354457
 H        -3.262128        -1.867559         0.464009
 H        -3.447980        -1.813462        -1.373468
 H        -1.908961        -2.202004        -0.383341
 H        -2.314694         0.231602        -2.492876
 H        -3.941220         0.258329        -1.877965
 H        -2.923299         3.832771        -2.394429
