19
Iteration:  1044
 C         1.165542         0.239564         0.802905
 C        -0.172204         0.229785         0.430763
 C        -1.216278         0.098955        -0.230886
 C        -2.576902        -0.141665        -0.759748
 C        -2.997873        -1.600985        -0.372262
 C        -2.784836         0.189380        -2.274558
 O        -2.233631         1.417652        -2.637791
 C        -3.040075         2.608085        -2.399702
 O        -3.799433         2.719045        -1.462097
 H         1.185928        -0.351244         1.685193
 H         1.926821        -0.239257         0.157750
 H         1.362813         1.249886         1.147047
 H        -3.220911         0.626896        -0.254626
 H        -3.848258        -1.589777         0.325477
 H        -3.442878        -2.050897        -1.256939
 H        -2.234828        -2.143440         0.199254
 H        -2.327331        -0.606426        -2.947970
 H        -3.900535         0.089111        -2.526644
 H        -2.711104         3.583839        -2.911097
