19
Iteration:   740
 C         1.462751        -0.301546         0.610998
 C         0.087138         0.045697         0.410090
 C        -1.016789         0.114633        -0.026816
 C        -2.413064         0.019843        -0.445991
 C        -3.060900        -1.372601        -0.084870
 C        -2.762318         0.381659        -1.890152
 O        -2.362542         1.773189        -1.896459
 C        -3.203822         2.700464        -2.453918
 O        -4.285815         2.429920        -2.993792
 H         1.897774        -0.630760         1.626020
 H         1.427931        -1.258399         0.048207
 H         2.076194         0.438344         0.217077
 H        -2.944363         0.749049         0.147589
 H        -2.574303        -1.802445         0.823835
 H        -4.153705        -1.213918         0.113286
 H        -2.798441        -2.084780        -0.886388
 H        -2.244019        -0.201401        -2.675708
 H        -3.857875         0.195380        -1.978236
 H        -2.800115         3.740198        -2.269033
