19
Iteration:  1403
 C         1.072787         0.425013         1.138487
 C        -0.057207         0.185697         0.192564
 C        -1.267458         0.076365        -0.200639
 C        -2.600385        -0.124641        -0.823648
 C        -3.144477        -1.540472        -0.585922
 C        -2.675273         0.107481        -2.357353
 O        -2.319896         1.458146        -2.818408
 C        -2.838011         2.615791        -2.079702
 O        -3.834106         2.566841        -1.377190
 H         1.107327        -0.443122         1.896709
 H         2.096715         0.223325         0.643370
 H         1.253767         1.355370         1.599331
 H        -3.286241         0.601150        -0.354658
 H        -2.685847        -1.922197         0.350984
 H        -4.275269        -1.557380        -0.456153
 H        -2.715237        -2.205547        -1.421438
 H        -2.095590        -0.613055        -2.929477
 H        -3.713587        -0.045018        -2.587951
 H        -2.318418         3.493280        -2.644004
