19
Iteration:  2606charge 0 multiplicity 1
 C         1.107645         0.572015         0.298825
 C        -0.185696         0.058956         0.316263
 C        -1.343681        -0.289022         0.036142
 C        -2.711772        -0.483089        -0.381157
 C        -3.087829        -1.953594        -0.741570
 C        -2.842680         0.428630        -1.722834
 O        -2.920786         1.804595        -1.189492
 C        -3.027300         2.825034        -2.090056
 O        -2.724323         2.653412        -3.249300
 H         1.763463        -0.198096         0.770949
 H         1.547962         0.614610        -0.639822
 H         1.425450         1.385473         1.003757
 H        -3.548307        -0.115817         0.225799
 H        -3.763777        -1.895474        -1.607000
 H        -2.083722        -2.408188        -0.948344
 H        -3.593685        -2.334130         0.187001
 H        -2.048799         0.215803        -2.407719
 H        -3.837581         0.072922        -2.095356
 H        -3.644555         3.662670        -1.677916
