19
Iteration:  2277charge 0 multiplicity 1
 C         0.895934         1.077643         0.060632
 C        -0.302817         0.252294        -0.113279
 C        -1.429181        -0.267468        -0.279499
 C        -2.847709        -0.481103        -0.319663
 C        -3.295883        -2.045770        -0.515491
 C        -3.349218         0.285069        -1.529009
 O        -3.147956         1.678641        -1.229475
 C        -2.474403         2.671185        -1.972108
 O        -1.814937         2.440461        -2.977321
 H         0.702627         1.301744         1.064579
 H         1.867097         0.670963        -0.114021
 H         0.771911         1.817710        -0.742034
 H        -3.313511         0.010709         0.567083
 H        -3.960932        -2.218661         0.326842
 H        -3.885889        -2.271133        -1.397580
 H        -2.428157        -2.661214        -0.585732
 H        -2.743879         0.024179        -2.456847
 H        -4.418440         0.212228        -1.651593
 H        -2.719612         3.525709        -1.305772
