19
Iteration:  1812charge 0 multiplicity 1
 C         1.402973        -0.037106         0.828362
 C         0.042078        -0.041031         0.291626
 C        -1.119009        -0.008126        -0.032408
 C        -2.498375        -0.216039        -0.295012
 C        -2.788447        -1.820906        -0.591306
 C        -3.029750         0.591750        -1.515287
 O        -2.766924         2.069155        -1.370483
 C        -3.209839         2.750225        -2.486232
 O        -3.626352         2.398372        -3.586548
 H         1.270386        -0.867139         1.485122
 H         2.127649        -0.233718         0.070162
 H         1.631569         0.956922         1.325958
 H        -3.124354         0.047329         0.603781
 H        -1.989797        -2.407194        -0.221982
 H        -3.780216        -1.865191        -0.153140
 H        -2.766521        -2.035734        -1.655331
 H        -2.808095         0.136676        -2.515024
 H        -4.104427         0.485918        -1.328707
 H        -2.980375         3.917737        -2.342210
