19
Iteration:  3015charge 0 multiplicity 1
 C         1.440419        -0.207456         1.081408
 C         0.091840        -0.295475         0.541702
 C        -0.969605        -0.246360        -0.150093
 C        -2.404202        -0.272739        -0.435750
 C        -2.946962        -1.622221        -0.970655
 C        -2.820429         0.778092        -1.651867
 O        -3.060457         2.177011        -1.284046
 C        -3.518975         2.869533        -2.373680
 O        -3.398281         2.439214        -3.485046
 H         2.114130        -1.113508         0.948678
 H         1.914637         0.670229         0.633194
 H         1.182021         0.067374         2.190815
 H        -2.945610         0.047642         0.511933
 H        -4.038737        -1.830036        -0.808859
 H        -2.632559        -1.861224        -2.010454
 H        -2.505910        -2.556474        -0.465026
 H        -1.931960         0.804330        -2.363006
 H        -3.472106         0.313755        -2.354473
 H        -4.032383         3.799841        -2.106607
