19
Iteration:  4802
 C         1.251171        -0.485146         1.080359
 C         0.042016        -0.043602         0.440803
 C        -1.059151         0.250653         0.073569
 C        -2.343510         0.090641        -0.631099
 C        -3.132270        -1.290774        -0.526805
 C        -2.122400         0.774658        -2.077624
 O        -3.377358         1.057919        -2.710865
 C        -3.696596         2.331622        -2.590952
 O        -3.188583         3.089529        -1.828665
 H         2.032271         0.233332         1.010820
 H         1.160916        -0.910983         2.057847
 H         1.640816        -1.380946         0.489960
 H        -2.936999         0.867402        -0.166289
 H        -4.136212        -1.110126        -0.759579
 H        -2.631232        -1.890437        -1.331965
 H        -3.045887        -1.739222         0.466918
 H        -1.487095         1.587867        -1.841222
 H        -1.644671         0.080562        -2.776474
 H        -4.399121         2.601827        -3.366854
