19
Iteration:  2872
 C         1.389941        -0.180187         0.914133
 C        -0.064495        -0.001909         0.519765
 C        -1.244610        -0.080285         0.128391
 C        -2.555655        -0.273314        -0.461439
 C        -2.797660        -1.776193        -0.803515
 C        -2.732478         0.546641        -1.821745
 O        -2.913197         1.915176        -1.363001
 C        -3.161190         2.863348        -2.330828
 O        -3.605173         2.700589        -3.455681
 H         1.977342         0.500979         0.289218
 H         1.463609         0.103396         1.922311
 H         1.698058        -1.266884         0.776355
 H        -3.371573        -0.047915         0.253403
 H        -3.892840        -1.915381        -1.192442
 H        -2.094720        -2.015898        -1.642021
 H        -2.683433        -2.463855         0.055469
 H        -1.809270         0.451544        -2.451625
 H        -3.475048         0.093846        -2.433405
 H        -2.758425         3.780629        -1.849540
