19
Iteration:  3027charge 0 multiplicity 1
 C         1.323314        -0.143882         1.076540
 C         0.068235        -0.364811         0.455706
 C        -0.971011        -0.245684        -0.151989
 C        -2.390050        -0.296042        -0.455982
 C        -2.852503        -1.702645        -0.902705
 C        -2.784243         0.729159        -1.627887
 O        -3.031655         2.206662        -1.285548
 C        -3.512492         2.902922        -2.374337
 O        -3.409194         2.485286        -3.522091
 H         1.808569        -1.189613         1.142541
 H         1.967246         0.507162         0.581944
 H         1.369900         0.151520         2.233376
 H        -2.957193         0.039137         0.455424
 H        -3.968055        -1.565792        -0.926956
 H        -2.607752        -1.702199        -2.010396
 H        -2.396620        -2.517110        -0.213479
 H        -1.933779         0.673115        -2.353791
 H        -3.831114         0.568524        -1.872124
 H        -4.192816         3.657054        -1.989658
