19
Iteration:  4226
 C         1.424678        -1.074621         1.300673
 C         0.186210        -0.550558         0.651312
 C        -0.769065        -0.131267         0.036062
 C        -2.097529         0.313309        -0.447554
 C        -2.809901        -0.686139        -1.337287
 C        -2.143397         1.722576        -1.175036
 O        -3.561171         1.753711        -1.435629
 C        -4.150038         2.048389        -2.634205
 O        -3.564765         2.300703        -3.644619
 H         1.650024        -0.580884         2.284610
 H         1.422067        -2.118254         1.572295
 H         2.135092        -1.094869         0.552275
 H        -2.633494         0.587306         0.488756
 H        -3.205478        -0.440289        -2.361425
 H        -2.073490        -1.407077        -1.597483
 H        -3.572644        -1.376167        -1.000884
 H        -1.845440         2.406645        -0.482088
 H        -1.527672         1.719667        -2.108328
 H        -5.268691         1.957459        -2.437626
