19
Iteration:   506charge 0 multiplicity 1
 C         1.438878         0.039038         0.003586
 C         0.054794        -0.059532         0.200609
 C        -1.141587        -0.035280        -0.011409
 C        -2.586913        -0.169874        -0.154839
 C        -3.155892        -1.570241         0.090530
 C        -3.047063         0.571527        -1.414534
 O        -2.780044         1.986666        -1.342114
 C        -3.001863         2.665806        -2.503603
 O        -3.423829         2.244133        -3.580981
 H         1.722378         0.861083        -0.830998
 H         1.927157         0.442350         0.941832
 H         1.843469        -0.885487        -0.464358
 H        -2.994145         0.426862         0.642008
 H        -3.386170        -1.891460         1.127088
 H        -4.171852        -1.561513        -0.346131
 H        -2.483357        -2.341064        -0.320168
 H        -2.438146         0.157822        -2.298412
 H        -4.120556         0.369056        -1.630409
 H        -2.578152         3.662196        -2.216786
