19
Iteration:  2412charge 0 multiplicity 1
 C         1.142881         0.243011         0.334904
 C        -0.205607         0.260663         0.308954
 C        -1.364717        -0.025619        -0.017555
 C        -2.726515        -0.333103        -0.372069
 C        -2.659866        -1.863336        -0.751370
 C        -3.405215         0.466081        -1.533617
 O        -3.551117         1.965524        -1.323966
 C        -2.854181         2.670523        -2.208186
 O        -2.162370         2.343811        -3.145817
 H         1.443937         1.002093        -0.358670
 H         1.678428         0.487586         1.298560
 H         1.735973        -0.577347        -0.051209
 H        -3.327520        -0.113232         0.547699
 H        -1.928365        -2.300355        -0.142746
 H        -3.558608        -2.421395        -0.551282
 H        -2.604326        -1.934982        -1.819846
 H        -2.824821         0.291069        -2.396413
 H        -4.450260         0.070504        -1.559709
 H        -3.078190         3.766027        -2.204672
