19
Iteration:  2722charge 0 multiplicity 1
 C         1.159830         0.437690         0.695225
 C        -0.160029         0.062978         0.317134
 C        -1.351757        -0.157232        -0.033766
 C        -2.750222        -0.457450        -0.442466
 C        -2.929855        -1.920607        -0.967275
 C        -3.235798         0.490959        -1.589435
 O        -2.492496         1.768539        -1.233969
 C        -2.735233         2.742512        -2.184431
 O        -3.239214         2.634930        -3.292434
 H         1.238839         1.217150         1.482635
 H         1.701323        -0.530432         0.575860
 H         1.322247         1.098329        -0.137658
 H        -3.329872        -0.261748         0.470496
 H        -3.935836        -2.065314        -1.285730
 H        -2.263534        -2.063403        -1.799349
 H        -2.706843        -2.656652        -0.230874
 H        -2.906764         0.296015        -2.642050
 H        -4.277584         0.712012        -1.462368
 H        -2.302434         3.643819        -1.714733
