19
Iteration:  3669charge 0 multiplicity 1
 C         1.490331        -0.762188         0.826382
 C         0.121670        -0.317418         0.662529
 C        -0.996426        -0.117810         0.250978
 C        -2.285987        -0.008176        -0.381012
 C        -2.794585        -1.252961        -1.056323
 C        -2.288122         1.189879        -1.448796
 O        -3.526551         2.021279        -1.330055
 C        -3.931882         2.541665        -2.543171
 O        -3.353193         2.389194        -3.589464
 H         1.743557        -1.036453         1.889793
 H         1.644646        -1.769248         0.187429
 H         2.042698         0.054887         0.281827
 H        -3.113725         0.277059         0.343921
 H        -3.329096        -0.973040        -1.935565
 H        -1.912718        -1.944238        -1.138130
 H        -3.420337        -1.864284        -0.357889
 H        -1.446348         1.806533        -1.123634
 H        -2.157844         0.884108        -2.450393
 H        -4.994286         2.959814        -2.345020
