19
Iteration:  3938charge 0 multiplicity 1
 C         1.439544        -0.421221         0.569504
 C         0.043456        -0.417312         0.379900
 C        -1.153977        -0.296598         0.253891
 C        -2.480773        -0.001148        -0.255172
 C        -3.030910        -0.879953        -1.367115
 C        -2.217728         1.424363        -0.888553
 O        -3.426000         2.102702        -1.254957
 C        -3.754622         2.195185        -2.580900
 O        -3.068894         1.854006        -3.491149
 H         1.808418        -0.548370        -0.513230
 H         1.697569         0.514607         1.027440
 H         1.801399        -1.259443         1.245624
 H        -3.183015         0.122864         0.622530
 H        -3.387789        -0.323386        -2.200896
 H        -2.162430        -1.413256        -1.860477
 H        -3.772919        -1.438271        -0.812166
 H        -1.778565         2.105801        -0.114121
 H        -1.643442         1.363270        -1.752762
 H        -4.830883         2.537907        -2.670557
