19
Iteration:   964charge 0 multiplicity 1
 C         1.299878        -0.005303         0.942858
 C         0.041055         0.190125         0.226160
 C        -1.071442         0.034025        -0.215889
 C        -2.541559        -0.063474        -0.547873
 C        -3.122206        -1.381798        -0.403306
 C        -2.711642         0.285258        -2.089424
 O        -2.225461         1.511759        -2.498520
 C        -3.052776         2.562912        -2.322145
 O        -4.206029         2.615992        -1.948364
 H         1.877977        -0.872589         0.527069
 H         1.881779         0.849108         0.692213
 H         1.201784        -0.035777         1.977646
 H        -3.107442         0.706580        -0.053002
 H        -3.707121        -1.299462         0.528356
 H        -3.792161        -1.590241        -1.270917
 H        -2.370731        -2.167710        -0.374656
 H        -2.124367        -0.513434        -2.514489
 H        -3.770590         0.173803        -2.352859
 H        -2.503353         3.476818        -2.727266
