19
Iteration:   649
 C         1.678131        -0.153016         0.612213
 C         0.237999        -0.195687         0.236993
 C        -0.943890        -0.122605        -0.078923
 C        -2.489138        -0.027299        -0.273266
 C        -3.158546        -1.428232        -0.162402
 C        -3.075664         0.625468        -1.536637
 O        -2.476552         1.890874        -1.745845
 C        -3.143960         2.708141        -2.626983
 O        -4.131787         2.341658        -3.213775
 H         2.193231        -1.077294         0.707752
 H         2.197574         0.550071        -0.077098
 H         1.630499         0.299589         1.642333
 H        -2.911820         0.516201         0.569938
 H        -3.370594        -1.681254         0.885514
 H        -4.194434        -1.199967        -0.555597
 H        -2.597358        -2.265841        -0.611977
 H        -2.821409         0.007108        -2.468266
 H        -4.181899         0.796486        -1.559278
 H        -2.692178         3.680444        -2.881064
