19
Iteration:  4442
 C         1.454665        -0.247342         1.186460
 C         0.217266        -0.271342         0.371433
 C        -0.957942        -0.495017        -0.000101
 C        -2.327488        -0.174147        -0.427507
 C        -3.160345        -1.198230        -1.280813
 C        -2.258983         1.096229        -1.341896
 O        -3.576847         1.693837        -1.396333
 C        -3.899408         2.417851        -2.502860
 O        -3.060200         2.648285        -3.355827
 H         2.281307        -0.677637         0.651579
 H         1.794193         0.752534         1.338069
 H         1.345523        -0.745468         2.246752
 H        -2.941108         0.134178         0.475391
 H        -3.576355        -0.423204        -1.974693
 H        -2.594902        -1.804953        -1.913933
 H        -3.879706        -1.768490        -0.690621
 H        -1.567306         1.861405        -1.046340
 H        -1.824356         0.968819        -2.426606
 H        -4.887115         2.910606        -2.319018
