19
Iteration:  1573
 C         1.299335         0.024755         0.901840
 C        -0.047511        -0.102756         0.456512
 C        -1.157044        -0.039459        -0.030886
 C        -2.538338         0.021600        -0.611234
 C        -3.043663        -1.515451        -0.462264
 C        -2.451222         0.463319        -2.063500
 O        -2.105973         1.880155        -2.165099
 C        -3.234487         2.646919        -2.279162
 O        -4.366187         2.311226        -2.514443
 H         1.841012         0.934681         0.788413
 H         1.430687        -0.265896         1.929129
 H         1.979088        -0.720351         0.314841
 H        -3.281363         0.571272        -0.026401
 H        -3.732032        -1.433869         0.361044
 H        -3.811570        -1.697517        -1.270116
 H        -2.213672        -2.240522        -0.315075
 H        -1.567501        -0.076833        -2.502938
 H        -3.391422         0.334210        -2.666428
 H        -2.852219         3.775390        -2.311496
