19
Iteration:  3894
 C         1.379757        -0.613281         0.389014
 C         0.008486        -0.388691         0.588376
 C        -1.172231        -0.257055         0.440431
 C        -2.329447         0.153471        -0.270090
 C        -2.811323        -0.944731        -1.254046
 C        -2.223056         1.555769        -0.911487
 O        -3.598136         1.987352        -1.354294
 C        -3.886266         2.085668        -2.669603
 O        -3.008324         2.030918        -3.499101
 H         1.700241        -0.268965        -0.643866
 H         2.030841        -0.321424         1.159342
 H         1.601464        -1.729665         0.413344
 H        -3.181370         0.186159         0.452041
 H        -3.226387        -0.332953        -2.026179
 H        -1.946630        -1.530428        -1.669197
 H        -3.638997        -1.439874        -0.770312
 H        -1.969285         2.357311        -0.207855
 H        -1.524219         1.520784        -1.691653
 H        -4.967403         2.388551        -2.736882
