19
Iteration:  1388
 C         1.023471         0.419434         1.007851
 C        -0.143680         0.198479         0.244769
 C        -1.263622         0.063781        -0.271588
 C        -2.579585        -0.097922        -0.772746
 C        -3.089304        -1.544863        -0.593523
 C        -2.726137         0.155752        -2.289272
 O        -2.279538         1.488112        -2.730907
 C        -2.847467         2.491869        -2.196036
 O        -3.733118         2.561634        -1.333487
 H         1.062671        -0.345181         1.756161
 H         1.896396         0.595271         0.434029
 H         0.593188         1.376474         1.483025
 H        -3.235825         0.623143        -0.206407
 H        -3.222798        -1.896561         0.442623
 H        -4.106699        -1.665429        -1.038106
 H        -2.522734        -2.289014        -1.183896
 H        -1.970301        -0.450512        -2.813280
 H        -3.735069        -0.064952        -2.690507
 H        -2.248999         3.310061        -2.330528
