19
Iteration:  3813charge 0 multiplicity 1
 C         1.504372        -1.045061         0.765791
 C         0.253765        -0.344276         0.324025
 C        -0.868000         0.031955         0.008471
 C        -2.313239         0.260655        -0.210899
 C        -2.899838        -0.941971        -1.032068
 C        -2.433922         1.603242        -0.957196
 O        -3.865747         1.769665        -1.459682
 C        -3.941529         2.194271        -2.744238
 O        -2.940565         2.183803        -3.438291
 H         2.171003        -0.247893         0.975239
 H         1.244222        -1.303067         1.870194
 H         1.804570        -1.879372         0.053250
 H        -2.807975         0.336845         0.817804
 H        -3.886863        -1.183233        -0.592781
 H        -3.161492        -0.713617        -2.061220
 H        -2.164117        -1.787697        -1.064763
 H        -2.516842         2.387256        -0.279846
 H        -1.643611         1.829114        -1.690714
 H        -4.988407         2.421882        -3.149557
