19
Iteration:  2533charge 0 multiplicity 1
 C         1.262809         0.352480         0.697120
 C        -0.074248         0.040904         0.156061
 C        -1.179184        -0.006176        -0.387070
 C        -2.606256        -0.327959        -0.491409
 C        -2.906150        -1.855386        -0.641394
 C        -3.391221         0.423467        -1.627057
 O        -3.324602         1.818958        -1.214342
 C        -2.938900         2.678045        -2.133138
 O        -2.560337         2.559538        -3.276161
 H         1.988823        -0.476575         0.427389
 H         1.961102         1.312007         0.610700
 H         1.261243         0.112510         1.808794
 H        -3.070958         0.036907         0.458880
 H        -3.890552        -2.035013        -0.183586
 H        -2.901271        -2.010729        -1.700717
 H        -2.054490        -2.463232        -0.304143
 H        -2.864675         0.273593        -2.569588
 H        -4.442128         0.075858        -1.550671
 H        -3.040026         3.691489        -1.666811
