19
Iteration:   114
 C         1.165635         0.580812        -0.899755
 C        -0.230481         0.339101        -0.521691
 C        -1.337539         0.009845        -0.093217
 C        -2.824092        -0.111178        -0.006148
 C        -3.299859        -1.618233         0.322622
 C        -3.586236         0.589365        -1.242553
 O        -3.439763         2.030678        -1.384378
 C        -2.518303         2.322193        -2.227983
 O        -1.742925         1.637648        -2.822917
 H         1.204491         0.998813        -1.773301
 H         1.772054         1.239025        -0.097779
 H         1.759260        -0.391155        -1.199443
 H        -3.077006         0.432148         0.862843
 H        -3.098872        -1.789230         1.414275
 H        -4.359917        -1.949920         0.105495
 H        -2.608974        -2.334912        -0.197227
 H        -3.167018         0.150743        -2.183799
 H        -4.691950         0.367308        -1.087990
 H        -2.426308         3.456094        -2.126568
