19
Iteration:   108charge 0 multiplicity 1
 C         1.202974         0.539191        -0.861613
 C        -0.263610         0.410684        -0.561304
 C        -1.344005        -0.019739        -0.078749
 C        -2.832377        -0.155563         0.002476
 C        -3.263849        -1.627477         0.321358
 C        -3.569192         0.596257        -1.245394
 O        -3.480495         2.023970        -1.363368
 C        -2.446206         2.409930        -2.244159
 O        -1.780396         1.603209        -2.842117
 H         1.339576         1.256116        -1.917980
 H         1.647548         1.012854        -0.040778
 H         1.566569        -0.430548        -1.117490
 H        -3.153711         0.434307         0.938481
 H        -3.077133        -1.766045         1.380929
 H        -4.330680        -1.770484         0.218323
 H        -2.666403        -2.348724        -0.213686
 H        -3.063880         0.111270        -2.092359
 H        -4.589565         0.333348        -1.147482
 H        -2.490918         3.506899        -2.336130
