19
Iteration:  3791
 C         1.497753        -0.995415         0.873405
 C         0.211072        -0.431772         0.426309
 C        -0.766073         0.023741        -0.152863
 C        -2.193765         0.262950        -0.315937
 C        -3.035799        -0.854493        -1.041650
 C        -2.496702         1.607214        -0.952942
 O        -3.839299         1.730399        -1.370540
 C        -3.880967         2.009975        -2.734711
 O        -2.976226         2.335765        -3.511402
 H         2.183963        -0.248606         1.289853
 H         1.326246        -1.728017         1.805210
 H         1.829383        -1.540862        -0.093588
 H        -2.546189         0.275375         0.781305
 H        -3.841085        -0.952166        -0.294712
 H        -3.641480        -0.652855        -1.930084
 H        -2.319947        -1.695202        -1.119347
 H        -2.320143         2.454435        -0.351085
 H        -1.873130         1.773478        -1.853114
 H        -5.004976         2.013677        -2.988397
