19
Iteration:  1376
 C         0.963907         0.484757         0.969051
 C        -0.240592         0.172480         0.251617
 C        -1.282016         0.052041        -0.379295
 C        -2.631855        -0.127092        -0.768493
 C        -3.090031        -1.590905        -0.614377
 C        -2.706970         0.209129        -2.242859
 O        -2.227303         1.420560        -2.684111
 C        -2.805888         2.588956        -2.155230
 O        -3.688092         2.523040        -1.323204
 H         1.448137        -0.248153         1.551130
 H         1.736850         0.755829         0.279585
 H         0.972243         1.400142         1.677101
 H        -3.274742         0.507238        -0.123506
 H        -3.476775        -1.650942         0.406652
 H        -3.895958        -1.744876        -1.343395
 H        -2.245950        -2.252995        -0.661643
 H        -2.107924        -0.578953        -2.746022
 H        -3.776199         0.089381        -2.581909
 H        -2.422288         3.376151        -2.688240
