19
Iteration:  4768charge 0 multiplicity 1
 C         1.400441        -0.495236         1.042877
 C         0.029652        -0.346108         0.634968
 C        -1.086221        -0.103219         0.111842
 C        -2.343561         0.242997        -0.459343
 C        -3.084070        -1.160075        -0.561545
 C        -2.076404         0.827103        -1.952119
 O        -3.261211         1.074798        -2.736412
 C        -3.846748         2.299919        -2.593238
 O        -3.376820         3.338988        -2.136885
 H         1.908483         0.414770         1.185170
 H         1.594411        -1.100324         1.935363
 H         1.806920        -0.915273         0.096087
 H        -2.849138         0.924680         0.221670
 H        -4.094766        -1.328216        -0.840123
 H        -2.557604        -1.626339        -1.429956
 H        -2.865653        -1.879734         0.228217
 H        -1.459343         1.648434        -2.061954
 H        -1.621512         0.074442        -2.576952
 H        -4.806160         2.220763        -3.100445
