19
Iteration:  1590
 C         1.385732        -0.022852         0.894764
 C        -0.029752        -0.124901         0.330399
 C        -1.218138        -0.037485         0.118041
 C        -2.497549        -0.005340        -0.519307
 C        -3.119803        -1.425286        -0.538382
 C        -2.395498         0.435829        -2.020870
 O        -2.154172         1.865405        -2.080967
 C        -3.249408         2.655610        -2.316058
 O        -4.364152         2.307918        -2.622423
 H         1.715326         0.987854         0.508187
 H         1.274633         0.103891         2.014146
 H         2.067755        -0.773280         0.593432
 H        -3.133240         0.795638        -0.082100
 H        -3.020403        -1.843398         0.506776
 H        -4.021361        -1.458340        -1.157309
 H        -2.310653        -1.924960        -1.083310
 H        -1.600304        -0.081647        -2.508207
 H        -3.349476         0.254020        -2.497486
 H        -3.066578         3.685697        -2.058852
