19
Iteration:  4420charge 0 multiplicity 1
 C         1.434285        -0.138860         1.094018
 C         0.065743        -0.485144         0.560725
 C        -1.013834        -0.528353         0.020568
 C        -2.331282        -0.169869        -0.501155
 C        -3.100586        -1.189979        -1.294321
 C        -2.142761         1.112258        -1.326289
 O        -3.528793         1.787083        -1.322139
 C        -3.811174         2.438874        -2.452120
 O        -3.168225         2.643778        -3.461983
 H         2.162987        -0.345893         0.338991
 H         1.563433         0.902602         1.347003
 H         1.767989        -0.744867         2.041828
 H        -2.909214         0.085792         0.431194
 H        -3.987247        -0.823262        -1.910348
 H        -2.453693        -1.611335        -2.006224
 H        -3.234590        -2.030045        -0.599880
 H        -1.369903         1.823713        -1.122429
 H        -1.921255         0.962004        -2.457243
 H        -4.905143         2.641925        -2.367390
