19
Iteration:  4501charge 0 multiplicity 1
 C         1.496843        -0.536293         1.074218
 C         0.193174        -0.378797         0.478011
 C        -0.927450        -0.300051        -0.068275
 C        -2.300380         0.007807        -0.354054
 C        -2.853697        -1.373571        -1.016645
 C        -2.480616         1.245538        -1.248619
 O        -3.830429         1.593753        -1.578175
 C        -3.884086         2.395856        -2.706353
 O        -2.968517         2.949616        -3.329189
 H         2.020501        -1.609641         1.041685
 H         2.190407         0.245877         0.592962
 H         1.434209        -0.267509         2.112564
 H        -2.898630         0.224121         0.518758
 H        -3.675381        -1.435433        -1.751309
 H        -1.983985        -2.052772        -1.463635
 H        -3.358654        -2.073194        -0.305360
 H        -2.072583         2.104778        -0.650196
 H        -2.115532         1.110563        -2.214067
 H        -4.917810         2.571019        -2.907137
