19
Iteration:  2589charge 0 multiplicity 1
 C         1.228076         0.509987         0.464896
 C        -0.138826         0.090464         0.181956
 C        -1.328470        -0.300018        -0.026754
 C        -2.676961        -0.473662        -0.469597
 C        -3.099390        -1.975471        -0.694895
 C        -2.959602         0.485337        -1.624439
 O        -3.090227         1.833797        -1.137301
 C        -3.007653         2.752151        -2.134244
 O        -2.687010         2.656784        -3.304103
 H         2.131928        -0.165759         0.687637
 H         1.706422         1.012519        -0.524711
 H         1.202933         1.336808         1.207439
 H        -3.324711        -0.139634         0.385495
 H        -3.904279        -2.147946        -1.438019
 H        -2.301731        -2.540405        -1.150229
 H        -3.498247        -2.375692         0.215023
 H        -2.078398         0.407741        -2.332034
 H        -3.798457         0.162323        -2.267654
 H        -3.114423         3.768574        -1.707436
