19
Iteration:  4082
 C         1.505491        -0.746512         0.949222
 C         0.074698        -0.588115         0.635512
 C        -0.979120        -0.241010         0.177802
 C        -2.238599         0.219400        -0.376244
 C        -2.883559        -0.845750        -1.333913
 C        -2.107213         1.590368        -1.141530
 O        -3.464371         2.122036        -1.341845
 C        -4.057510         2.118487        -2.582322
 O        -3.409482         1.975823        -3.598825
 H         1.685979        -1.853682         1.311678
 H         2.111317        -0.503679         0.093439
 H         1.799164         0.108730         1.614789
 H        -2.990468         0.381047         0.478234
 H        -2.630716        -1.926406        -1.179716
 H        -3.982188        -0.794923        -1.330743
 H        -2.578120        -0.753962        -2.428306
 H        -1.683782         2.322709        -0.473768
 H        -1.545291         1.460576        -2.065584
 H        -5.213200         2.130058        -2.545726
