19
Iteration:  2137charge 0 multiplicity 1
 C         1.043388         0.826716        -0.063653
 C        -0.377777         0.411363        -0.221149
 C        -1.576709         0.255091        -0.218955
 C        -2.849249        -0.378381        -0.364510
 C        -2.771330        -1.889302        -0.820361
 C        -3.746909         0.439836        -1.406591
 O        -3.463670         1.880836        -1.235773
 C        -2.463715         2.431137        -1.899218
 O        -1.688036         1.817402        -2.605484
 H         1.706550        -0.022113        -0.436708
 H         1.347467         1.791095        -0.649968
 H         1.228620         1.287022         0.855251
 H        -3.321103        -0.307125         0.629743
 H        -2.629631        -1.869440        -1.942698
 H        -1.883322        -2.416929        -0.412400
 H        -3.630730        -2.427514        -0.385026
 H        -3.322997         0.074761        -2.411704
 H        -4.839861         0.319925        -1.362200
 H        -2.513268         3.458497        -2.096819
