19
Iteration:  2604charge 0 multiplicity 1
 C         1.135783         0.574482         0.315550
 C        -0.171918         0.057814         0.309970
 C        -1.354710        -0.293280         0.018104
 C        -2.715164        -0.489775        -0.397818
 C        -3.091685        -1.952492        -0.742264
 C        -2.846861         0.422606        -1.702146
 O        -2.942071         1.813748        -1.185374
 C        -3.034324         2.818830        -2.099869
 O        -2.715086         2.651104        -3.255154
 H         1.706923        -0.257306         0.830924
 H         1.597988         0.729768        -0.721981
 H         1.374192         1.358232         1.036998
 H        -3.534770        -0.087889         0.258332
 H        -3.794004        -1.895395        -1.575040
 H        -2.074724        -2.460681        -0.908205
 H        -3.552661        -2.332580         0.202564
 H        -2.016509         0.262748        -2.427737
 H        -3.861329         0.127667        -2.055300
 H        -3.585545         3.693746        -1.633779
