19
Iteration:  1263
 C         0.973726         0.916818         0.476162
 C        -0.423763         0.303270         0.136680
 C        -1.526514        -0.057149        -0.127486
 C        -2.824558        -0.380197        -0.710178
 C        -3.168571        -2.005648        -0.652740
 C        -2.860493         0.264090        -2.210360
 O        -1.978924         1.382921        -2.422342
 C        -2.447101         2.542472        -1.912949
 O        -3.549082         2.741228        -1.455544
 H         1.624374         0.761768        -0.443076
 H         0.911271         1.944764         1.008782
 H         1.392274         0.294736         1.282516
 H        -3.595471         0.116561        -0.132073
 H        -2.950546        -2.706863        -1.482602
 H        -2.490107        -2.440022         0.045239
 H        -4.244560        -2.073844        -0.336951
 H        -2.471412        -0.519267        -2.901675
 H        -3.916157         0.596733        -2.446114
 H        -1.686101         3.263586        -2.148458
