19
Iteration:  3022
 C         1.386892        -0.169808         1.091503
 C         0.053597        -0.339616         0.497476
 C        -0.936522        -0.241202        -0.151836
 C        -2.385380        -0.322383        -0.419345
 C        -2.894882        -1.674409        -0.934022
 C        -2.817656         0.761979        -1.650626
 O        -3.039011         2.198384        -1.288201
 C        -3.508330         2.922887        -2.383377
 O        -3.401482         2.449625        -3.503686
 H         1.866131        -1.124994         1.028242
 H         1.995078         0.636407         0.471847
 H         1.165718         0.039018         2.118915
 H        -2.966204         0.145291         0.396143
 H        -3.976363        -1.657589        -0.882435
 H        -2.634072        -1.764128        -1.967730
 H        -2.471392        -2.465576        -0.403839
 H        -1.895747         0.773989        -2.230121
 H        -3.764052         0.383820        -2.132315
 H        -4.262606         3.656757        -1.964441
