19
Iteration:  1449charge 0 multiplicity 1
 C         1.067230         0.164805         1.162009
 C        -0.213397         0.195046         0.466416
 C        -1.096243         0.007858        -0.403448
 C        -2.477940        -0.080146        -0.856886
 C        -3.027400        -1.492434        -0.479562
 C        -2.635168         0.255565        -2.268492
 O        -2.251154         1.566900        -2.675560
 C        -3.039510         2.530203        -2.300117
 O        -4.007756         2.559495        -1.535375
 H         1.336622         0.167118         2.222697
 H         1.828895        -0.574553         0.752535
 H         1.567316         1.045381         0.824937
 H        -3.071237         0.652939        -0.345744
 H        -2.221162        -2.130241        -0.889351
 H        -3.005993        -1.463497         0.597759
 H        -3.961797        -1.729090        -0.980006
 H        -2.039511        -0.386351        -2.916314
 H        -3.698198         0.143460        -2.514981
 H        -2.745874         3.510208        -2.841935
