19
Iteration:  4227charge 0 multiplicity 1
 C         1.433876        -1.069548         1.300283
 C         0.185599        -0.551952         0.649610
 C        -0.767806        -0.139867         0.039997
 C        -2.104655         0.315465        -0.451587
 C        -2.818070        -0.676472        -1.342404
 C        -2.152860         1.714277        -1.173579
 O        -3.554740         1.749785        -1.432824
 C        -4.143262         2.045313        -2.632111
 O        -3.568536         2.304496        -3.650506
 H         1.664882        -0.553350         2.285207
 H         1.383408        -2.146758         1.592082
 H         2.148600        -1.090445         0.570386
 H        -2.655041         0.602627         0.486734
 H        -3.192683        -0.445561        -2.342735
 H        -2.069241        -1.417795        -1.602174
 H        -3.531394        -1.378282        -0.980642
 H        -1.811925         2.419464        -0.466412
 H        -1.530508         1.734020        -2.096925
 H        -5.271092         1.985046        -2.441731
