19
Iteration:  2286
 C         0.893443         1.033873         0.062078
 C        -0.311052         0.228080        -0.071170
 C        -1.338806        -0.296520        -0.301423
 C        -2.851937        -0.459564        -0.379556
 C        -3.294915        -1.968197        -0.497618
 C        -3.361850         0.312478        -1.586218
 O        -3.104126         1.671238        -1.263206
 C        -2.551432         2.623481        -1.965440
 O        -1.870937         2.451856        -2.929741
 H         0.889599         1.683654         1.027848
 H         1.797800         0.546357         0.215756
 H         0.835560         1.981934        -0.602989
 H        -3.211157        -0.126619         0.585754
 H        -3.818290        -2.310054         0.446847
 H        -4.019970        -2.040019        -1.304679
 H        -2.492707        -2.670986        -0.434101
 H        -2.909531        -0.158046        -2.467130
 H        -4.412173         0.115144        -1.739755
 H        -2.436577         3.544578        -1.397275
