19
Iteration:  4658charge 0 multiplicity 1
 C         1.453956        -0.827136         1.015653
 C         0.192786        -0.507040         0.445038
 C        -0.856845        -0.059469         0.133668
 C        -2.197565         0.183297        -0.308077
 C        -2.990338        -1.343087        -0.591027
 C        -2.344594         1.325569        -1.377181
 O        -3.414015         1.160068        -2.362748
 C        -3.905071         2.252619        -2.934020
 O        -3.473069         3.391257        -2.752076
 H         1.296771        -0.681859         2.072876
 H         1.916122        -1.844404         0.772922
 H         2.294337        -0.074951         0.710466
 H        -2.844804         0.563416         0.428955
 H        -3.834458        -1.044196        -1.304295
 H        -2.269846        -2.004551        -0.943459
 H        -3.439937        -1.524703         0.380231
 H        -2.487988         2.218335        -0.867690
 H        -1.370486         1.477926        -1.904090
 H        -4.531499         2.032338        -3.768858
