19
Iteration:  2509charge 0 multiplicity 1
 C         1.178779         0.162105         0.700049
 C        -0.113873         0.162659         0.139934
 C        -1.189654         0.104355        -0.361606
 C        -2.555307        -0.371735        -0.521510
 C        -2.725804        -1.928361        -0.641303
 C        -3.483400         0.489448        -1.563750
 O        -3.427340         1.916599        -1.259118
 C        -2.934721         2.736251        -2.156417
 O        -2.475356         2.465030        -3.245671
 H         1.976339        -0.318253         0.041646
 H         1.779620         1.152132         0.827228
 H         1.397314        -0.313544         1.743219
 H        -2.952839        -0.056592         0.460580
 H        -3.401940        -2.154077         0.162878
 H        -3.094344        -2.252682        -1.610970
 H        -1.733748        -2.400445        -0.537577
 H        -3.135228         0.255902        -2.534092
 H        -4.518068         0.181075        -1.317158
 H        -3.197443         3.785566        -1.944320
