19
Iteration:  4513charge 0 multiplicity 1
 C         1.548356        -0.566989         1.059524
 C         0.206449        -0.455674         0.483645
 C        -0.945558        -0.208645         0.107088
 C        -2.368895        -0.060268        -0.375421
 C        -2.812994        -1.379669        -0.987996
 C        -2.493626         1.247770        -1.295878
 O        -3.874375         1.588330        -1.628012
 C        -3.870020         2.396131        -2.750592
 O        -3.009496         3.005973        -3.316382
 H         1.864375        -1.710232         0.978728
 H         2.331128         0.001759         0.410963
 H         1.650817        -0.231283         2.068936
 H        -2.868114         0.087759         0.565114
 H        -3.602160        -1.005106        -1.666460
 H        -1.913835        -1.751875        -1.635140
 H        -3.010281        -2.046980        -0.109960
 H        -1.974844         2.163722        -0.893445
 H        -1.827506         1.104569        -2.098705
 H        -4.916381         2.443601        -3.036131
