19
Iteration:  1681
 C         1.502164        -0.047273         0.885677
 C         0.053281        -0.233452         0.406618
 C        -1.099250         0.003967         0.071219
 C        -2.513788        -0.097014        -0.430932
 C        -3.086332        -1.504974        -0.518982
 C        -2.551326         0.557577        -1.839930
 O        -2.422251         1.960954        -1.749681
 C        -3.333685         2.733170        -2.375600
 O        -4.188162         2.326295        -3.170453
 H         2.105516        -0.410834         0.073716
 H         1.754348         1.007552         1.077755
 H         1.740615        -0.791173         1.761380
 H        -3.029892         0.522418         0.268606
 H        -3.105771        -1.710937        -1.590676
 H        -2.474440        -2.315922        -0.023147
 H        -4.037813        -1.769396         0.027039
 H        -1.608053         0.224830        -2.374775
 H        -3.458769         0.245436        -2.423676
 H        -3.006040         3.692664        -2.093362
