19
Iteration:   879charge 0 multiplicity 1
 C         1.465225         0.000727         0.718710
 C         0.111027        -0.174963         0.301435
 C        -1.066942         0.042626         0.009608
 C        -2.502431         0.076877        -0.478400
 C        -3.348036        -1.312136        -0.350752
 C        -2.469081         0.315858        -1.905120
 O        -2.205840         1.699492        -2.328551
 C        -3.184901         2.604021        -2.287774
 O        -4.374970         2.461109        -2.445588
 H         2.134714         0.484561         0.016547
 H         1.598716         0.541401         1.686870
 H         1.923254        -1.127541         0.862796
 H        -3.209627         0.830336        -0.044720
 H        -3.022717        -1.980207         0.434951
 H        -4.392911        -1.121274        -0.138772
 H        -3.257786        -1.982253        -1.162169
 H        -1.697984        -0.207515        -2.495192
 H        -3.451840         0.084285        -2.395057
 H        -2.616721         3.502901        -2.111417
