19
Iteration:  1536
 C         1.341849        -0.004515         1.013219
 C        -0.097096         0.131903         0.522895
 C        -1.159485         0.041773        -0.105784
 C        -2.456922        -0.055589        -0.741244
 C        -3.047088        -1.514887        -0.490036
 C        -2.522616         0.346052        -2.223414
 O        -2.121870         1.771073        -2.271042
 C        -3.187288         2.598299        -2.338075
 O        -4.359135         2.444894        -2.178017
 H         1.711344         0.918898         1.537929
 H         1.236018        -0.907815         1.697690
 H         1.957037        -0.361493         0.194506
 H        -3.017180         0.722848        -0.218395
 H        -4.212285        -1.370785        -0.457957
 H        -2.806337        -2.348646        -1.165721
 H        -2.812512        -1.955018         0.482647
 H        -1.773391        -0.132380        -2.836121
 H        -3.520117         0.215077        -2.655498
 H        -2.748863         3.484033        -2.674683
