19
Iteration:  2214charge 0 multiplicity 1
 C         0.846893         0.974035        -0.227168
 C        -0.435156         0.419348         0.057269
 C        -1.531956        -0.003946        -0.086968
 C        -2.918398        -0.445356        -0.332561
 C        -3.016366        -1.924709        -0.770738
 C        -3.426086         0.406885        -1.523290
 O        -3.300794         1.754822        -1.135958
 C        -2.410444         2.460647        -1.897762
 O        -1.715571         2.086473        -2.830496
 H         1.786510         0.720550         0.474912
 H         1.408017         0.645252        -1.227103
 H         0.803453         2.063373        -0.107174
 H        -3.627650        -0.247553         0.510562
 H        -4.098023        -2.244986        -0.795440
 H        -2.666332        -2.144529        -1.818925
 H        -2.518470        -2.538774         0.029165
 H        -2.662589         0.260987        -2.384077
 H        -4.396616         0.039245        -1.910368
 H        -2.256870         3.560888        -1.537516
