19
Iteration:  2175charge 0 multiplicity 1
 C         0.960434         0.873089        -0.227568
 C        -0.400125         0.550942        -0.074490
 C        -1.524157         0.021882         0.005612
 C        -2.895046        -0.412142        -0.336491
 C        -2.827975        -1.900871        -0.872977
 C        -3.651722         0.452052        -1.451320
 O        -3.509770         1.866795        -1.255305
 C        -2.337977         2.403995        -1.841591
 O        -1.645443         1.926360        -2.743455
 H         1.579528         0.156642         0.217992
 H         1.100105         1.063060        -1.247415
 H         1.177261         1.764731         0.453344
 H        -3.483408        -0.448968         0.582415
 H        -3.445736        -2.219460        -1.688957
 H        -1.781524        -2.193567        -0.973924
 H        -3.230743        -2.513498        -0.041107
 H        -3.281427         0.202291        -2.404679
 H        -4.747014         0.287411        -1.408966
 H        -2.472937         3.564010        -1.532061
