19
Iteration:  2105charge 0 multiplicity 1
 C         1.150125         0.844375         0.013199
 C        -0.271161         0.447989        -0.063300
 C        -1.409863         0.040231        -0.304367
 C        -2.793180        -0.312310        -0.416658
 C        -2.875268        -1.820374        -0.758488
 C        -3.734589         0.418605        -1.428403
 O        -3.543110         1.898688        -1.273164
 C        -2.508353         2.430820        -1.899688
 O        -1.817070         1.823419        -2.708706
 H         1.762076         0.237097        -0.708563
 H         1.192866         1.963970        -0.238802
 H         1.603210         0.646936         0.945738
 H        -3.140049        -0.142306         0.591303
 H        -2.127784        -2.018350        -1.574325
 H        -2.735674        -2.490076         0.116951
 H        -3.828683        -2.025584        -1.309907
 H        -3.349873         0.209662        -2.469820
 H        -4.778235         0.153080        -1.260689
 H        -2.721943         3.536398        -1.701739
