19
Iteration:  1498charge 0 multiplicity 1
 C         1.206798         0.056848         1.100858
 C        -0.013575         0.035835         0.291336
 C        -1.162862         0.156661        -0.095898
 C        -2.486657         0.014087        -0.595264
 C        -3.038634        -1.583962        -0.558244
 C        -2.566383         0.343609        -2.172612
 O        -2.201743         1.643532        -2.644103
 C        -3.127296         2.618612        -2.310875
 O        -4.229691         2.475866        -1.908428
 H         0.995976         0.624125         2.025453
 H         1.372894        -0.872552         1.607636
 H         2.242004         0.405506         0.839573
 H        -3.213658         0.609001         0.038901
 H        -3.493990        -1.894567        -1.485992
 H        -2.088807        -2.168961        -0.424713
 H        -3.792576        -1.538123         0.247241
 H        -1.785158        -0.319389        -2.612562
 H        -3.577246         0.074349        -2.544355
 H        -2.718050         3.702639        -2.403401
