19
Iteration:   141charge 0 multiplicity 1
 C         1.028724         0.616047        -0.956449
 C        -0.172163         0.092048        -0.298021
 C        -1.425243         0.124085        -0.279706
 C        -2.795577        -0.033413         0.022387
 C        -3.242319        -1.391709         0.217331
 C        -3.678213         0.431042        -1.131939
 O        -3.392989         1.839742        -1.363314
 C        -2.422419         2.334845        -2.146924
 O        -1.651222         1.719237        -2.859909
 H         0.716131         0.735768        -2.204325
 H         1.263256         1.558299        -0.553754
 H         1.998390         0.127431        -1.057340
 H        -3.024161         0.560147         1.001121
 H        -3.239996        -1.668657         1.252431
 H        -4.242097        -1.554639        -0.149115
 H        -2.707722        -2.148244        -0.318905
 H        -3.389243        -0.145349        -2.023871
 H        -4.711412         0.278636        -0.927721
 H        -2.645885         3.443880        -2.186023
