19
Iteration:  4179
 C         1.282401        -1.232468         1.199795
 C         0.229696        -0.417436         0.547815
 C        -0.761767         0.133094         0.054312
 C        -2.143627         0.329899        -0.438822
 C        -2.498228        -1.008824        -1.233598
 C        -2.265565         1.677179        -1.265360
 O        -3.717316         1.986189        -1.370589
 C        -4.158240         2.182809        -2.601726
 O        -3.436394         2.144963        -3.574528
 H         1.073304        -1.253850         2.237310
 H         1.303480        -2.241785         0.890553
 H         2.290124        -0.853331         0.861941
 H        -2.871183         0.527040         0.350107
 H        -2.304193        -0.955250        -2.327598
 H        -2.065356        -1.960183        -0.951230
 H        -3.571664        -1.371281        -1.188961
 H        -1.772630         2.447490        -0.677854
 H        -1.826638         1.548735        -2.231817
 H        -5.254988         2.278998        -2.629770
