19
Iteration:  2772
 C         1.224353         0.313332         1.057128
 C        -0.018450        -0.026704         0.205491
 C        -1.067401        -0.289569        -0.282384
 C        -2.569878        -0.460303        -0.495964
 C        -2.987645        -1.860481        -0.978606
 C        -3.217264         0.636887        -1.386129
 O        -2.717162         1.990080        -1.212675
 C        -2.775583         2.690713        -2.366395
 O        -3.455905         2.602319        -3.384173
 H         0.880057         1.255996         1.399012
 H         1.120455        -0.470369         1.710775
 H         2.214482         0.605341         0.648115
 H        -3.063287        -0.422758         0.506049
 H        -4.095382        -1.771078        -1.384660
 H        -2.407278        -2.103112        -1.923037
 H        -2.969563        -2.744860        -0.275918
 H        -2.999094         0.478076        -2.446840
 H        -4.289572         0.522250        -1.152581
 H        -1.890221         3.364645        -2.207895
