19
Iteration:  2840
 C         1.236085        -0.054806         1.002965
 C        -0.065388         0.020253         0.395232
 C        -1.194287        -0.116885        -0.126039
 C        -2.516108        -0.339643        -0.472405
 C        -2.815497        -1.797491        -0.868758
 C        -2.981748         0.577835        -1.683569
 O        -2.717364         2.021655        -1.350282
 C        -3.086843         2.896772        -2.306070
 O        -3.508842         2.504276        -3.358603
 H         1.845424         0.823206         0.772023
 H         0.998638        -0.157873         1.997229
 H         1.999354        -0.877682         0.800346
 H        -3.161858        -0.067991         0.393249
 H        -3.901035        -2.138348        -0.754817
 H        -2.685659        -2.097977        -1.927197
 H        -2.307436        -2.649380        -0.394463
 H        -2.383047         0.264743        -2.585972
 H        -4.041054         0.531799        -1.836410
 H        -2.877213         3.968097        -2.055320
