19
Iteration:   288charge 0 multiplicity 1
 C         1.193913         0.474317        -0.635593
 C        -0.131055         0.036333        -0.302204
 C        -1.340410        -0.082658        -0.088128
 C        -2.753024        -0.055363         0.059615
 C        -3.151420        -1.507535         0.168971
 C        -3.627402         0.529125        -1.206589
 O        -3.333067         2.018207        -1.250066
 C        -2.488710         2.475755        -2.305656
 O        -2.131729         1.825350        -3.238031
 H         2.139461        -0.201624        -0.325958
 H         1.464548         0.446543        -1.693363
 H         1.330555         1.472562        -0.295830
 H        -2.966829         0.609362         0.996374
 H        -3.133384        -1.995843         1.160469
 H        -4.148895        -1.624627        -0.240447
 H        -2.622985        -2.214215        -0.490477
 H        -3.217762        -0.038591        -2.089612
 H        -4.686338         0.283678        -1.114725
 H        -2.339905         3.543044        -2.012204
