19
Iteration:  3182charge 0 multiplicity 1
 C         1.135711         0.306112         0.711875
 C        -0.234641        -0.095102         0.469071
 C        -1.418187        -0.288210         0.178914
 C        -2.690270        -0.407265        -0.522725
 C        -2.878204        -1.833964        -0.971836
 C        -2.727614         0.463363        -1.746418
 O        -2.388755         1.881674        -1.376738
 C        -2.857850         2.773462        -2.259879
 O        -3.709541         2.729292        -3.141163
 H         1.421435         0.688281         1.754511
 H         1.964388        -0.307013         0.498898
 H         1.176748         1.275880         0.065676
 H        -3.511863         0.017325         0.107719
 H        -3.840991        -2.115068        -1.461789
 H        -1.981454        -2.087272        -1.640794
 H        -2.684367        -2.454367        -0.090563
 H        -2.087100         0.284202        -2.557592
 H        -3.755231         0.450278        -2.208227
 H        -2.299310         3.685757        -2.109419
