19
Iteration:   642
 C         1.616379        -0.150454         0.635492
 C         0.211841        -0.144204         0.279019
 C        -0.950382        -0.111547        -0.157748
 C        -2.458439        -0.090717        -0.279798
 C        -3.183185        -1.434448        -0.115819
 C        -3.095654         0.606130        -1.538469
 O        -2.450336         1.965788        -1.722703
 C        -3.120641         2.679245        -2.613565
 O        -4.116329         2.335026        -3.230853
 H         2.359402        -1.113758         0.319734
 H         1.959584         0.494608        -0.241519
 H         1.866140         0.218969         1.586982
 H        -2.751790         0.487194         0.602548
 H        -3.280332        -1.602176         0.956691
 H        -4.128421        -1.388455        -0.675739
 H        -2.703016        -2.229445        -0.658927
 H        -2.801595        -0.014019        -2.362448
 H        -4.195442         0.665976        -1.582126
 H        -2.721412         3.651531        -2.843387
