19
Iteration:  2513
 C         1.175316         0.145009         0.715649
 C        -0.072531         0.162912         0.163327
 C        -1.202109         0.102773        -0.381924
 C        -2.566170        -0.382485        -0.529881
 C        -2.757749        -1.907867        -0.664537
 C        -3.466424         0.468087        -1.557690
 O        -3.398946         1.889881        -1.262055
 C        -2.939739         2.759243        -2.166953
 O        -2.496613         2.476748        -3.227002
 H         2.037731        -0.138408         0.093059
 H         1.751204         1.179419         0.636658
 H         1.381778        -0.129477         1.719415
 H        -2.934369         0.003960         0.459464
 H        -3.431496        -2.212824         0.191421
 H        -3.174705        -2.268615        -1.605382
 H        -1.808566        -2.385784        -0.337483
 H        -3.135748         0.159693        -2.598097
 H        -4.498600         0.148333        -1.345635
 H        -3.116191         3.844858        -1.964284
