19
Iteration:  3113charge 0 multiplicity 1
 C         1.190020        -0.180447         0.892089
 C        -0.136383         0.223366         0.481109
 C        -1.183644        -0.044407        -0.038354
 C        -2.590126        -0.342102        -0.610984
 C        -2.702514        -1.897707        -0.714038
 C        -2.870953         0.418630        -1.853477
 O        -2.741385         1.849054        -1.420965
 C        -3.096589         2.973157        -2.210347
 O        -3.578053         2.788910        -3.283843
 H         1.295851        -1.009766         1.668375
 H         1.798741        -0.583697         0.022755
 H         1.541658         0.851648         1.298570
 H        -3.303438        -0.076456         0.226288
 H        -3.548637        -2.352742        -1.227839
 H        -1.865862        -2.307966        -1.285320
 H        -2.542373        -2.452445         0.236553
 H        -2.209970         0.039156        -2.696414
 H        -3.878644         0.200486        -2.166717
 H        -2.721647         3.935602        -1.787633
