19
Iteration:  2307charge 0 multiplicity 1
 C         0.978348         0.973231         0.158579
 C        -0.266721         0.277418        -0.020155
 C        -1.343011        -0.320266        -0.292584
 C        -2.755052        -0.465091        -0.509723
 C        -3.335591        -1.976940        -0.451624
 C        -3.296568         0.319822        -1.663099
 O        -3.256024         1.694707        -1.163418
 C        -2.484865         2.618007        -1.940729
 O        -1.949536         2.458522        -3.038066
 H         0.781581         1.804491         0.969371
 H         1.800975         0.406528         0.618720
 H         1.089289         1.568882        -0.891928
 H        -3.154762         0.098015         0.338917
 H        -3.588069        -2.238222         0.641821
 H        -4.303986        -1.973800        -1.009163
 H        -2.565248        -2.752890        -0.601597
 H        -2.887100         0.241914        -2.662095
 H        -4.340297        -0.038552        -1.788152
 H        -2.681845         3.536687        -1.388549
