19
Iteration:  3700
 C         1.546886        -0.853263         0.858084
 C         0.144879        -0.465420         0.642392
 C        -0.948644        -0.150937         0.201459
 C        -2.260872         0.164192        -0.377426
 C        -2.902233        -1.058611        -1.061617
 C        -2.216193         1.408812        -1.289914
 O        -3.682776         1.827509        -1.345749
 C        -3.971477         2.361871        -2.617823
 O        -3.308813         2.407127        -3.643780
 H         2.213226        -0.657286         1.780489
 H         1.831896        -1.881854         0.658135
 H         2.136141        -0.353795         0.103495
 H        -2.946307         0.502382         0.445558
 H        -3.536751        -0.868217        -1.897561
 H        -2.086512        -1.695849        -1.483044
 H        -3.300523        -1.658630        -0.259593
 H        -1.664433         2.194439        -0.644068
 H        -1.698095         1.318994        -2.224896
 H        -5.038412         2.693464        -2.545968
