19
Iteration:   729
 C         1.492108        -0.290857         0.570107
 C         0.080621         0.014113         0.431727
 C        -1.063038         0.091779         0.011551
 C        -2.413629        -0.078356        -0.497265
 C        -3.020991        -1.356494        -0.070156
 C        -2.779987         0.482753        -1.821107
 O        -2.433152         1.823635        -1.879435
 C        -3.180417         2.659941        -2.540719
 O        -4.246872         2.408348        -2.979525
 H         1.519956        -0.648902         1.703008
 H         1.868933        -1.074002        -0.140803
 H         2.259874         0.377560         0.440895
 H        -2.941564         0.690607         0.027776
 H        -2.414019        -1.710736         0.792616
 H        -4.107133        -1.412644         0.230103
 H        -3.057603        -2.116402        -0.867434
 H        -2.335699         0.042938        -2.735078
 H        -3.898057         0.478858        -1.934158
 H        -2.621217         3.623406        -2.427484
