19
Iteration:  4417
 C         1.434978        -0.145542         1.106794
 C         0.050824        -0.516640         0.577099
 C        -1.031086        -0.522960         0.012525
 C        -2.362107        -0.161243        -0.514602
 C        -3.094381        -1.239457        -1.292907
 C        -2.116625         1.126693        -1.329865
 O        -3.507918         1.794175        -1.314396
 C        -3.810875         2.442610        -2.461116
 O        -3.182384         2.639184        -3.465929
 H         2.112748        -0.186693         0.243921
 H         1.646715         0.965279         1.295119
 H         1.824514        -0.704072         1.973870
 H        -2.981696         0.121548         0.400373
 H        -3.991665        -0.789840        -1.794391
 H        -2.344051        -1.492027        -2.088519
 H        -3.147639        -2.030382        -0.523270
 H        -1.324992         1.908896        -1.069533
 H        -1.895630         0.998011        -2.426644
 H        -4.938129         2.691198        -2.333977
