19
Iteration:   336charge 0 multiplicity 1
 C         1.347510         0.271344        -0.366210
 C        -0.124412         0.370037        -0.376666
 C        -1.278994        -0.018152        -0.244513
 C        -2.770313        -0.153292         0.019984
 C        -3.248917        -1.587580         0.101482
 C        -3.438015         0.589420        -1.167086
 O        -3.105811         2.045734        -1.151069
 C        -2.722255         2.495066        -2.362668
 O        -2.410354         1.806755        -3.343013
 H         1.595500        -0.100281         0.565606
 H         1.806837        -0.533559        -0.990052
 H         1.906501         1.281387        -0.526320
 H        -3.024551         0.317365         0.928726
 H        -2.891666        -2.025449         1.046511
 H        -4.379684        -1.748211         0.045585
 H        -2.870696        -2.255086        -0.696080
 H        -3.169102         0.072901        -2.100422
 H        -4.536312         0.460221        -1.009911
 H        -2.550242         3.514924        -2.248514
