19
Iteration:  2663charge 0 multiplicity 1
 C         0.993396         0.462373         0.210271
 C        -0.362201         0.122262         0.296265
 C        -1.569034        -0.243486         0.290034
 C        -2.804307        -0.526041        -0.392586
 C        -2.887909        -1.987147        -0.788232
 C        -2.709225         0.462329        -1.659000
 O        -2.708364         1.803839        -1.203112
 C        -2.765146         2.814529        -2.094546
 O        -3.049727         2.731230        -3.272283
 H         1.516615         0.285733         1.190195
 H         1.662071         0.016922        -0.468899
 H         1.037048         1.583662        -0.156416
 H        -3.793772        -0.383677         0.088281
 H        -3.906982        -2.324273        -1.210968
 H        -2.147398        -2.323382        -1.561790
 H        -2.753784        -2.657971         0.123168
 H        -1.760837         0.328864        -2.194075
 H        -3.496813         0.196877        -2.412013
 H        -2.190018         3.698556        -1.751954
