19
Iteration:  4732
 C         1.499343        -0.551202         1.098116
 C         0.142673        -0.459689         0.553304
 C        -0.952795        -0.167237         0.207090
 C        -2.230274         0.130749        -0.479237
 C        -3.325809        -1.107783        -0.750907
 C        -1.975403         0.973700        -1.830063
 O        -3.264343         1.042221        -2.408881
 C        -3.877840         2.262978        -2.679751
 O        -3.563499         3.424926        -2.409247
 H         1.789236         0.399113         1.569437
 H         1.822038        -1.461721         1.639227
 H         2.116529        -0.626956         0.250030
 H        -2.767264         0.903215         0.177566
 H        -4.191320        -0.697313        -1.401371
 H        -2.724172        -1.880971        -1.162471
 H        -3.722570        -1.334094         0.267265
 H        -1.707079         1.975390        -1.551383
 H        -1.206535         0.452274        -2.387784
 H        -4.757903         2.048224        -3.369282
