19
Iteration:  2279charge 0 multiplicity 1
 C         0.894537         1.073664         0.054859
 C        -0.298672         0.256111        -0.100932
 C        -1.419964        -0.278163        -0.287998
 C        -2.848705        -0.465261        -0.329210
 C        -3.296617        -2.037771        -0.516180
 C        -3.350463         0.289115        -1.535673
 O        -3.136436         1.670892        -1.236546
 C        -2.489805         2.674001        -1.979503
 O        -1.824548         2.438379        -2.967113
 H         0.701183         1.330629         1.073710
 H         1.941782         0.640225        -0.033312
 H         0.750758         1.798443        -0.706997
 H        -3.290650         0.004237         0.597623
 H        -3.933814        -2.213365         0.330069
 H        -3.949955        -2.234928        -1.376164
 H        -2.405889        -2.682955        -0.541952
 H        -2.763357        -0.026748        -2.466011
 H        -4.444417         0.192425        -1.669660
 H        -2.688314         3.523836        -1.239751
