19
Iteration:  2952
 C         1.378943        -0.277776         0.865751
 C        -0.036217        -0.124282         0.473963
 C        -1.185032        -0.095858         0.109542
 C        -2.511915        -0.218370        -0.492322
 C        -2.895301        -1.707201        -0.777805
 C        -2.467764         0.690120        -1.770310
 O        -2.996309         1.997802        -1.301074
 C        -3.464580         2.766897        -2.310240
 O        -3.486770         2.641960        -3.533819
 H         2.095180        -0.716599         0.094361
 H         1.850987         0.663271         1.179496
 H         1.304445        -0.980704         1.740166
 H        -3.194596         0.058298         0.332191
 H        -3.747273        -1.718909        -1.479952
 H        -1.956955        -2.093204        -1.267816
 H        -2.960068        -2.262786         0.219682
 H        -1.382992         0.792759        -1.956031
 H        -3.173746         0.353260        -2.578601
 H        -4.154156         3.513596        -1.748165
