19
Iteration:  2488charge 0 multiplicity 1
 C         1.241280         0.053530         0.654655
 C        -0.081338         0.261590         0.094937
 C        -1.237719         0.079309        -0.304731
 C        -2.725598        -0.295533        -0.435183
 C        -2.618391        -1.843977        -0.715190
 C        -3.474665         0.482026        -1.515294
 O        -3.550493         1.910992        -1.204501
 C        -2.958193         2.742531        -2.237460
 O        -2.384734         2.381627        -3.246837
 H         2.128312        -0.083681         0.054919
 H         1.728698         1.031701         1.110363
 H         1.226344        -0.630706         1.589168
 H        -3.204504         0.011865         0.519044
 H        -3.034106        -2.443763         0.085393
 H        -3.055137        -2.149598        -1.658363
 H        -1.532534        -2.044163        -0.736292
 H        -2.968260         0.303079        -2.442637
 H        -4.500415         0.032924        -1.523191
 H        -2.787198         3.777704        -1.915974
