19
Iteration:  2193charge 0 multiplicity 1
 C         0.977800         0.972461        -0.251698
 C        -0.418042         0.457087         0.063583
 C        -1.601917         0.108975        -0.018793
 C        -2.880600        -0.453912        -0.375643
 C        -2.935095        -1.927506        -0.805031
 C        -3.547152         0.375607        -1.498134
 O        -3.350777         1.798296        -1.232720
 C        -2.419968         2.473660        -1.868280
 O        -1.709502         1.981215        -2.730497
 H         1.859741         0.407582         0.256423
 H         1.082034         0.705148        -1.377985
 H         1.256426         1.939495         0.080572
 H        -3.576392        -0.267947         0.453566
 H        -3.840613        -2.005795        -1.475397
 H        -2.081920        -2.120829        -1.505991
 H        -3.119919        -2.763011        -0.078568
 H        -3.181398         0.100649        -2.533033
 H        -4.644609         0.326218        -1.496826
 H        -2.077739         3.350066        -1.464500
