19
Iteration:   809
 C         1.475823        -0.108222         0.639494
 C         0.074085        -0.275719         0.256064
 C        -1.119256        -0.021583         0.038929
 C        -2.507996         0.078183        -0.419814
 C        -3.176892        -1.381544        -0.170110
 C        -2.551838         0.466719        -1.891686
 O        -2.247394         1.889317        -2.023954
 C        -3.205893         2.654337        -2.551745
 O        -4.364780         2.366239        -2.667145
 H         2.017389         0.884402         0.979998
 H         1.772628        -0.846625         1.405321
 H         2.019368        -0.337104        -0.289283
 H        -3.025568         0.851496         0.111760
 H        -3.523004        -1.375569         0.874464
 H        -4.096415        -1.519556        -0.748738
 H        -2.447847        -2.207074        -0.155443
 H        -1.847956        -0.122799        -2.447843
 H        -3.530303         0.339448        -2.301790
 H        -2.632832         3.529098        -2.822775
