19
Iteration:  2853
 C         1.295250        -0.097437         0.966855
 C        -0.010803         0.048784         0.426650
 C        -1.201237        -0.143693         0.060897
 C        -2.555726        -0.297181        -0.541573
 C        -2.844536        -1.832430        -0.878079
 C        -2.883060         0.575053        -1.721103
 O        -2.806203         1.978668        -1.316754
 C        -3.059717         2.851851        -2.341768
 O        -3.579215         2.593746        -3.418997
 H         2.031452         0.716113         0.770017
 H         1.315936        -0.044468         2.067608
 H         1.540159        -1.125359         0.628518
 H        -3.283150        -0.056218         0.263787
 H        -3.906612        -1.960767        -0.732600
 H        -2.427999        -2.051948        -1.864140
 H        -2.232503        -2.278551        -0.068723
 H        -2.208544         0.479722        -2.621078
 H        -3.900014         0.271828        -2.050429
 H        -2.869132         3.876656        -1.921570
