19
Iteration:  1640
 C         1.424141        -0.031830         0.806765
 C         0.020041         0.035909         0.538229
 C        -1.066839        -0.207057         0.047524
 C        -2.468396        -0.084778        -0.495029
 C        -3.227806        -1.572986        -0.568637
 C        -2.452126         0.587336        -1.909023
 O        -2.282589         2.003660        -1.811805
 C        -3.275275         2.743335        -2.414155
 O        -4.266304         2.222654        -2.895971
 H         2.035823         0.047038        -0.111039
 H         1.717961         0.625468         1.610186
 H         1.506904        -1.149365         1.025800
 H        -3.069708         0.588391         0.144997
 H        -2.362416        -2.192016        -0.657963
 H        -3.635656        -1.608066         0.484769
 H        -4.031245        -1.656913        -1.348974
 H        -1.550817         0.145489        -2.424827
 H        -3.387283         0.357962        -2.446446
 H        -3.113972         3.813628        -2.651872
