19
Iteration:  3376charge 0 multiplicity 1
 C         1.129775         0.104176         1.028737
 C        -0.180305        -0.091240         0.467650
 C        -1.306749        -0.095261        -0.031299
 C        -2.650476        -0.353032        -0.533531
 C        -2.678461        -1.812946        -0.922870
 C        -2.980727         0.595256        -1.793368
 O        -2.238983         1.793676        -1.574387
 C        -2.932529         2.795574        -2.338377
 O        -3.911997         2.715888        -3.051069
 H         1.934508         0.597209         0.552107
 H         1.113509         0.603818         2.069584
 H         1.573140        -0.915185         1.071471
 H        -3.437972        -0.180985         0.193831
 H        -3.454717        -1.922347        -1.683732
 H        -1.697332        -1.863517        -1.455617
 H        -2.654133        -2.458925        -0.066278
 H        -2.578165         0.122376        -2.726679
 H        -4.128975         0.684996        -1.860282
 H        -2.284365         3.709405        -2.242483
