19
Iteration:  1586
 C         1.374278        -0.006890         0.918648
 C        -0.014915        -0.124093         0.342426
 C        -1.219206        -0.046550         0.086178
 C        -2.543132        -0.034176        -0.538060
 C        -3.090627        -1.387531        -0.510846
 C        -2.409788         0.452995        -2.032638
 O        -2.112221         1.859202        -2.098349
 C        -3.259253         2.658081        -2.309306
 O        -4.386087         2.304015        -2.604667
 H         1.645399         0.982662         0.517193
 H         1.387735         0.009675         2.005783
 H         2.009180        -0.814302         0.496136
 H        -3.157761         0.773246        -0.022039
 H        -3.160428        -1.786631         0.490091
 H        -3.884564        -1.592229        -1.251296
 H        -2.265607        -2.043823        -0.953862
 H        -1.591140        -0.105387        -2.553701
 H        -3.347350         0.225505        -2.553758
 H        -2.941976         3.825092        -2.038346
