19
Iteration:  4278
 C         1.461528        -0.849766         1.262874
 C         0.149168        -0.515551         0.560086
 C        -0.940867        -0.179907         0.065492
 C        -2.273857         0.121855        -0.452012
 C        -2.682174        -1.070864        -1.349417
 C        -2.233702         1.473634        -1.218097
 O        -3.554163         2.055699        -1.345138
 C        -4.012593         2.287007        -2.566691
 O        -3.477204         2.306582        -3.642467
 H         1.952227         0.122190         1.550498
 H         1.295597        -1.424551         2.155394
 H         2.274159        -1.396929         0.568738
 H        -2.949177         0.244942         0.372437
 H        -3.640240        -0.826612        -1.979064
 H        -2.098966        -1.489341        -2.126357
 H        -2.851073        -1.978963        -0.702798
 H        -1.620594         2.197283        -0.670043
 H        -1.648370         1.294791        -2.170731
 H        -5.067487         2.495721        -2.465442
