19
Iteration:  1666charge 0 multiplicity 1
 C         1.410433        -0.083298         0.803626
 C         0.021144        -0.079754         0.493253
 C        -1.096264        -0.145341         0.074218
 C        -2.430555        -0.062412        -0.486665
 C        -3.110143        -1.560454        -0.506298
 C        -2.482621         0.542348        -1.889727
 O        -2.346311         2.026984        -1.703763
 C        -3.301505         2.702042        -2.438466
 O        -4.229915         2.287015        -3.066144
 H         2.080380        -0.239046        -0.072524
 H         1.543688         0.925861         1.297703
 H         1.629181        -0.838634         1.483919
 H        -3.176015         0.596690         0.068371
 H        -2.847519        -2.085246        -1.446718
 H        -2.688504        -2.038853         0.370059
 H        -4.146531        -1.319492        -0.429069
 H        -1.766381         0.168070        -2.578518
 H        -3.493565         0.390375        -2.239889
 H        -3.267464         3.888462        -2.369965
