19
Iteration:  3800charge 0 multiplicity 1
 C         1.412533        -0.960770         0.845943
 C         0.233020        -0.410813         0.374730
 C        -0.785477         0.038918        -0.072252
 C        -2.177432         0.236456        -0.309461
 C        -2.991526        -0.897853        -0.994724
 C        -2.451248         1.644102        -0.910702
 O        -3.894525         1.732155        -1.449986
 C        -3.912485         2.088690        -2.748896
 O        -2.952472         2.263124        -3.457821
 H         2.349613        -0.371474         0.905360
 H         1.339072        -1.755316         1.637614
 H         1.809323        -1.613683         0.078342
 H        -2.612376         0.294760         0.711891
 H        -3.864125        -1.248880        -0.464564
 H        -3.283247        -0.404763        -1.952238
 H        -2.397347        -1.829020        -1.203951
 H        -2.063037         2.449402        -0.196100
 H        -1.901287         1.669338        -1.849130
 H        -4.987445         2.245509        -2.999970
