19
Iteration:  1057
 C         1.199456         0.305412         0.914092
 C        -0.131071         0.243056         0.243743
 C        -1.272861         0.217448        -0.239811
 C        -2.591571        -0.123950        -0.734336
 C        -3.144982        -1.629424        -0.433509
 C        -2.788878         0.066625        -2.258412
 O        -2.252637         1.443808        -2.665670
 C        -2.923893         2.568701        -2.269240
 O        -3.786993         2.693013        -1.430743
 H         1.212488        -0.121871         1.886408
 H         1.867816        -0.272414         0.251041
 H         1.764712         1.339824         0.920983
 H        -3.317525         0.582733        -0.254674
 H        -3.926950        -1.630045         0.297628
 H        -3.382836        -2.190336        -1.323017
 H        -2.272611        -2.218413        -0.105462
 H        -2.241227        -0.638188        -2.926570
 H        -3.880676         0.148509        -2.441199
 H        -2.557810         3.272027        -3.052843
