19
Iteration:  2236
 C         0.823593         1.046527        -0.117301
 C        -0.429204         0.372105        -0.132898
 C        -1.508208        -0.232911        -0.025873
 C        -2.914661        -0.509973        -0.332515
 C        -3.117163        -2.015840        -0.630617
 C        -3.305665         0.387377        -1.551613
 O        -3.247594         1.835322        -1.229408
 C        -2.354804         2.586835        -1.862771
 O        -1.794129         2.190235        -2.881229
 H         1.526898         0.890528         0.814647
 H         1.552390         0.556454        -0.917681
 H         0.713892         2.111527        -0.359297
 H        -3.565302        -0.185991         0.524130
 H        -4.001934        -2.563680        -0.251733
 H        -3.144967        -2.168151        -1.738815
 H        -2.183178        -2.454558        -0.211802
 H        -2.759172         0.129149        -2.514472
 H        -4.382648         0.167734        -1.690266
 H        -2.599689         3.718784        -1.652871
