19
Iteration:   983
 C         1.330423         0.090902         0.917473
 C         0.055703         0.051711         0.243149
 C        -1.146219         0.125225        -0.039554
 C        -2.490649         0.058301        -0.622136
 C        -3.117997        -1.487852        -0.455351
 C        -2.753943         0.169202        -2.111749
 O        -2.303566         1.459468        -2.604280
 C        -3.035539         2.656913        -2.354058
 O        -4.145298         2.679378        -1.829787
 H         1.689034        -0.967287         1.010689
 H         2.121478         0.750020         0.561105
 H         1.207662         0.291682         2.063847
 H        -3.258876         0.729174        -0.203682
 H        -3.889779        -1.598684         0.319259
 H        -3.495838        -1.966792        -1.391122
 H        -2.190331        -2.113688        -0.306669
 H        -2.190137        -0.567510        -2.693022
 H        -3.803837         0.113738        -2.189701
 H        -2.333416         3.372010        -2.791860
