19
Iteration:  2622
 C         1.149881         0.524697         0.241959
 C        -0.285165         0.097949         0.371000
 C        -1.422533        -0.275311         0.199177
 C        -2.739301        -0.438902        -0.446589
 C        -3.039200        -1.921809        -0.768446
 C        -2.821608         0.395984        -1.695305
 O        -2.806428         1.752170        -1.198664
 C        -3.039185         2.720439        -2.076232
 O        -2.777537         2.723174        -3.268994
 H         1.873415        -0.063991         0.833679
 H         1.214303         0.550273        -0.882519
 H         1.091607         1.575744         0.396449
 H        -3.372636         0.001900         0.331427
 H        -3.713869        -1.938001        -1.636471
 H        -2.176162        -2.517412        -0.980073
 H        -3.512840        -2.508850        -0.007211
 H        -1.891452         0.305524        -2.313347
 H        -3.695048         0.384424        -2.311194
 H        -3.310727         3.600851        -1.471375
