19
Iteration:  1266
 C         0.977486         0.905511         0.502631
 C        -0.373288         0.308084         0.119047
 C        -1.535517        -0.020811        -0.109929
 C        -2.812700        -0.392647        -0.701075
 C        -3.179280        -1.983489        -0.651681
 C        -2.858577         0.249202        -2.252015
 O        -1.994751         1.371944        -2.409925
 C        -2.462609         2.497722        -1.911353
 O        -3.541278         2.766181        -1.454545
 H         1.521665         0.757001        -0.368219
 H         0.905832         1.927218         0.845633
 H         1.393411         0.280315         1.356329
 H        -3.642764         0.078533        -0.117545
 H        -3.019443        -2.559439        -1.632732
 H        -2.486930        -2.517684         0.017317
 H        -4.186847        -2.178348        -0.269104
 H        -2.476714        -0.525926        -2.940796
 H        -3.873376         0.640748        -2.504740
 H        -1.824626         3.353193        -2.111787
