19
Iteration:  3422
 C         1.198799        -0.165843         1.126585
 C        -0.145939        -0.009716         0.536516
 C        -1.281919        -0.136938         0.182233
 C        -2.592949        -0.321941        -0.483307
 C        -2.650799        -1.832470        -1.067525
 C        -2.826584         0.654633        -1.761761
 O        -2.383067         2.034471        -1.561886
 C        -3.010240         2.798321        -2.477478
 O        -4.014976         2.622947        -3.144596
 H         1.877018        -0.167431         0.194603
 H         1.539158         0.757203         1.571950
 H         1.524443        -1.130887         1.629968
 H        -3.367223         0.087674         0.191531
 H        -3.675988        -2.001763        -1.290883
 H        -2.069602        -1.794008        -1.987677
 H        -2.204702        -2.465964        -0.313527
 H        -2.453761         0.203531        -2.650516
 H        -3.982648         0.671448        -1.850922
 H        -2.333219         3.734734        -2.481336
