19
Iteration:  4845charge 0 multiplicity 1
 C         1.231503        -0.291155         1.131153
 C        -0.004512         0.002995         0.450501
 C        -1.071464         0.094572        -0.105307
 C        -2.357619         0.230411        -0.704269
 C        -3.082038        -1.190609        -0.538196
 C        -2.197868         0.466157        -2.223792
 O        -3.381876         1.150064        -2.860240
 C        -3.666164         2.363449        -2.422898
 O        -3.045781         2.984657        -1.580649
 H         2.110458         0.195142         0.829909
 H         0.988225        -0.056095         2.172371
 H         1.350938        -1.413476         1.131396
 H        -3.006067         1.022327        -0.259401
 H        -3.848889        -1.331994        -1.264757
 H        -2.325830        -2.031525        -0.745271
 H        -3.659716        -1.326494         0.416123
 H        -1.273212         0.859690        -2.593014
 H        -2.197494        -0.524454        -2.678406
 H        -4.738943         2.578966        -2.634044
