19
Iteration:  4828charge 0 multiplicity 1
 C         1.192052        -0.422882         1.144041
 C         0.085442         0.109439         0.357606
 C        -1.113068         0.120741        -0.036252
 C        -2.410726         0.191782        -0.634216
 C        -3.045090        -1.173012        -0.588492
 C        -2.239218         0.518791        -2.172622
 O        -3.362351         1.054247        -2.784157
 C        -3.704560         2.350630        -2.458755
 O        -3.080459         3.036280        -1.656570
 H         2.112259         0.219339         0.856193
 H         1.085879        -0.495282         2.235133
 H         1.457301        -1.469021         0.888346
 H        -2.915793         1.007139        -0.137873
 H        -3.984772        -1.192284        -1.233078
 H        -2.260732        -1.772937        -0.974055
 H        -3.292230        -1.410630         0.453706
 H        -1.303098         1.209439        -2.063821
 H        -1.890632        -0.421143        -2.673495
 H        -4.331408         2.764616        -3.266091
