19
Iteration:   373
 C         1.520299         0.234978        -0.233846
 C        -0.028862         0.092405        -0.202373
 C        -1.287922         0.057971        -0.165539
 C        -2.749524        -0.083731         0.017158
 C        -3.178375        -1.575106         0.027081
 C        -3.537953         0.578321        -1.138979
 O        -3.178245         1.997543        -1.216434
 C        -2.625373         2.485404        -2.395309
 O        -2.686726         1.948535        -3.507587
 H         1.741801         0.566094         0.769181
 H         1.977164        -0.678006        -0.554546
 H         1.934305         0.989298        -0.846855
 H        -3.035167         0.410780         0.946840
 H        -2.282528        -2.048268         0.466303
 H        -4.072318        -1.822565         0.569608
 H        -3.207818        -1.890402        -1.029697
 H        -3.351770         0.186404        -2.118994
 H        -4.603095         0.609545        -0.939565
 H        -1.820319         3.280152        -2.218186
