19
Iteration:  4425charge 0 multiplicity 1
 C         1.426607        -0.155999         1.086790
 C         0.109495        -0.434486         0.549430
 C        -0.993599        -0.537420         0.027940
 C        -2.291630        -0.162599        -0.480639
 C        -3.108950        -1.144210        -1.297381
 C        -2.195730         1.096557        -1.347011
 O        -3.533827         1.772366        -1.330567
 C        -3.828873         2.431759        -2.451522
 O        -3.145541         2.648577        -3.449753
 H         2.266267        -0.547278         0.412353
 H         1.416675         0.914167         1.419559
 H         1.589465        -0.711825         1.966737
 H        -2.839540         0.078058         0.423646
 H        -3.939811        -0.867351        -1.896327
 H        -2.472855        -1.784948        -2.031264
 H        -3.491853        -2.017998        -0.717112
 H        -1.388270         1.800922        -1.005898
 H        -2.006033         0.834154        -2.349538
 H        -4.902600         2.668656        -2.422329
