19
Iteration:  2536
 C         1.257086         0.374125         0.702482
 C        -0.078011         0.033329         0.139060
 C        -1.158134        -0.032550        -0.360583
 C        -2.610231        -0.335500        -0.475308
 C        -2.909358        -1.840954        -0.651322
 C        -3.379311         0.438737        -1.630422
 O        -3.328316         1.810323        -1.210395
 C        -2.920298         2.656140        -2.124667
 O        -2.575589         2.574513        -3.279793
 H         1.971788        -0.401691         0.417757
 H         1.969527         1.184990         0.553320
 H         1.212399         0.184967         1.727840
 H        -3.037274         0.087209         0.463368
 H        -3.915398        -2.083976        -0.234555
 H        -2.934877        -1.969207        -1.750792
 H        -2.148830        -2.495351        -0.166623
 H        -2.829779         0.273157        -2.603219
 H        -4.410923         0.090415        -1.658868
 H        -3.044269         3.689240        -1.734366
