19
Iteration:  4109charge 0 multiplicity 1
 C         1.540993        -0.974235         0.999250
 C         0.110535        -0.514426         0.672002
 C        -0.947310        -0.099626         0.264414
 C        -2.223450         0.252014        -0.384543
 C        -2.673075        -0.922935        -1.298715
 C        -2.233669         1.583860        -1.175350
 O        -3.581388         2.071452        -1.302421
 C        -4.029843         2.260766        -2.649701
 O        -3.507774         1.995935        -3.703269
 H         1.409915        -1.840030         1.542515
 H         2.095741        -1.216542         0.039263
 H         2.144757        -0.159278         1.341472
 H        -2.960092         0.401465         0.364342
 H        -1.951218        -1.732284        -1.316270
 H        -3.707501        -1.273149        -1.069265
 H        -2.878510        -0.606051        -2.322464
 H        -1.794185         2.352587        -0.461709
 H        -1.681056         1.585937        -2.183096
 H        -5.028104         2.605501        -2.606065
