19
Iteration:  4901charge 0 multiplicity 1
 C         1.178189         0.086228         1.201720
 C        -0.032850        -0.106970         0.480952
 C        -1.013234        -0.307678        -0.288354
 C        -2.291521         0.079812        -0.878379
 C        -3.297912        -1.030700        -0.585387
 C        -2.192379         0.469976        -2.318432
 O        -3.436157         1.146202        -2.776860
 C        -3.619448         2.311585        -2.249185
 O        -2.922349         2.938426        -1.493200
 H         2.003993         0.148611         0.472035
 H         1.215734         0.915715         1.871624
 H         1.380580        -0.780261         1.901153
 H        -2.591890         0.972643        -0.279220
 H        -4.192756        -0.826675        -1.136091
 H        -2.753263        -1.956083        -1.018328
 H        -3.380667        -1.173750         0.520195
 H        -1.329697         1.188325        -2.296999
 H        -2.129458        -0.447829        -2.896784
 H        -4.479016         2.794801        -2.802033
