19
Iteration:   659charge 0 multiplicity 1
 C         1.669104        -0.123655         0.619965
 C         0.236139        -0.271908         0.140582
 C        -0.997925        -0.113226         0.017308
 C        -2.456806         0.009351        -0.227520
 C        -3.159482        -1.384925        -0.185115
 C        -3.001271         0.607779        -1.561546
 O        -2.478283         1.895237        -1.790513
 C        -3.149857         2.681082        -2.644504
 O        -4.190018         2.363752        -3.209387
 H         1.928920        -1.036774         0.915194
 H         2.509538         0.390982         0.159901
 H         1.617715         0.441232         1.644334
 H        -2.839676         0.719367         0.558424
 H        -3.181547        -1.798449         0.835452
 H        -4.187273        -1.521193        -0.654056
 H        -2.592165        -2.128123        -0.811892
 H        -2.939100        -0.083382        -2.471270
 H        -4.058347         0.645084        -1.228040
 H        -2.471379         3.603921        -2.515506
