19
Iteration:   705charge 0 multiplicity 1
 C         1.501937        -0.241648         0.686843
 C         0.160519        -0.112812         0.243800
 C        -1.020681        -0.000826        -0.075495
 C        -2.542729        -0.004890        -0.278793
 C        -3.046820        -1.510375        -0.047294
 C        -2.831514         0.500297        -1.684520
 O        -2.355556         1.955953        -1.851033
 C        -3.182060         2.722978        -2.673274
 O        -4.289366         2.406136        -3.069295
 H         1.702175        -0.952427         1.440514
 H         1.971748        -0.538072        -0.281151
 H         2.123083         0.642920         0.833485
 H        -3.013485         0.749625         0.355875
 H        -2.436367        -2.012591         0.721806
 H        -4.134786        -1.751447         0.190448
 H        -2.888930        -2.043033        -1.013962
 H        -2.199601        -0.062080        -2.443805
 H        -3.923798         0.493297        -1.980318
 H        -2.577934         3.686828        -2.797560
