19
Iteration:  3857
 C         1.507634        -0.858446         0.505399
 C         0.103850        -0.419656         0.436761
 C        -1.039783         0.001450         0.310154
 C        -2.439136         0.161200        -0.149464
 C        -2.715717        -0.981766        -1.111581
 C        -2.455356         1.515295        -0.812931
 O        -3.689208         1.968462        -1.468373
 C        -3.875687         2.179168        -2.743991
 O        -3.015968         2.126963        -3.561355
 H         2.177776        -0.245152        -0.034188
 H         1.855362        -0.789265         1.618339
 H         1.450945        -1.898907         0.097578
 H        -3.176724         0.165397         0.713664
 H        -3.755616        -0.865124        -1.536877
 H        -1.992033        -1.188889        -1.863675
 H        -2.755938        -1.992020        -0.716333
 H        -2.211213         2.234867        -0.068832
 H        -1.668542         1.548436        -1.609261
 H        -4.907367         2.562810        -2.973411
