19
Iteration:   517
 C         1.456763         0.048808        -0.023087
 C         0.009104        -0.032197         0.244953
 C        -1.161104        -0.055104         0.078558
 C        -2.559871        -0.188369        -0.157320
 C        -3.143705        -1.612540         0.126655
 C        -2.995395         0.508704        -1.526278
 O        -2.730694         2.015489        -1.381637
 C        -3.061137         2.704287        -2.506354
 O        -3.468466         2.300649        -3.558745
 H         1.864407         0.605609        -1.011353
 H         2.007639         0.245900         0.935245
 H         1.892367        -1.017352         0.080087
 H        -3.089858         0.459040         0.483375
 H        -3.004780        -1.785472         1.230062
 H        -4.204722        -1.611625        -0.190515
 H        -2.745467        -2.442128        -0.499156
 H        -2.546171         0.128118        -2.527309
 H        -4.095523         0.390597        -1.464143
 H        -2.645035         3.721139        -2.477428
