19
Iteration:  3853charge 0 multiplicity 1
 C         1.464245        -0.878567         0.527500
 C         0.112508        -0.402243         0.408309
 C        -1.024634         0.006865         0.291209
 C        -2.405098         0.155789        -0.110539
 C        -2.722759        -0.982666        -1.113106
 C        -2.435480         1.511362        -0.828586
 O        -3.742133         1.957407        -1.462714
 C        -3.885164         2.202463        -2.751458
 O        -2.995999         2.128506        -3.578294
 H         2.279710        -0.221221        -0.000348
 H         1.740426        -0.895910         1.565862
 H         1.616551        -1.885403         0.186025
 H        -3.104473         0.199590         0.686623
 H        -3.790806        -0.941393        -1.312861
 H        -1.971100        -1.138258        -1.964677
 H        -2.697547        -2.065999        -0.729949
 H        -2.163185         2.278101         0.071989
 H        -1.681271         1.626934        -1.621479
 H        -4.900792         2.538941        -2.943861
