19
Iteration:  4890
 C         1.196120        -0.001085         1.218510
 C        -0.069620        -0.123952         0.515891
 C        -1.024472        -0.165498        -0.233856
 C        -2.287951         0.040303        -0.895165
 C        -3.245483        -1.080559        -0.545198
 C        -2.124166         0.497174        -2.378605
 O        -3.430461         1.105891        -2.801025
 C        -3.698803         2.402851        -2.270569
 O        -2.916746         2.935948        -1.469787
 H         1.871520         0.228371         0.382776
 H         1.207572         0.889673         1.802672
 H         1.617702        -0.932595         1.692290
 H        -2.764280         0.940713        -0.459639
 H        -4.235845        -1.065503        -0.926992
 H        -2.937007        -2.194343        -0.595919
 H        -3.476943        -0.866848         0.527465
 H        -1.329887         1.165632        -2.785226
 H        -1.991942        -0.341864        -3.069764
 H        -4.572802         2.893289        -2.793038
