19
Iteration:  4071charge 0 multiplicity 1
 C         1.461784        -0.624115         0.946840
 C         0.081627        -0.569478         0.541638
 C        -1.013019        -0.244674         0.118830
 C        -2.263307         0.159037        -0.424844
 C        -2.946499        -0.797044        -1.329683
 C        -2.125860         1.524837        -1.113517
 O        -3.451633         2.118479        -1.268570
 C        -3.934937         2.049428        -2.553877
 O        -3.395828         1.955479        -3.622213
 H         1.813589        -1.727746         1.332966
 H         2.076203        -0.530977         0.085155
 H         1.761758        -0.194929         1.922639
 H        -2.909873         0.450945         0.494470
 H        -2.992702        -1.824685        -0.900028
 H        -3.977247        -0.380196        -1.462050
 H        -2.363184        -0.648807        -2.289155
 H        -1.592808         2.136691        -0.396768
 H        -1.537768         1.574528        -2.026717
 H        -5.075992         2.200834        -2.372398
