19
Iteration:  3883
 C         1.469805        -0.732516         0.400229
 C         0.047111        -0.390630         0.597648
 C        -1.140942        -0.189487         0.409309
 C        -2.410812         0.192439        -0.217535
 C        -2.774531        -0.992235        -1.216434
 C        -2.273189         1.584156        -0.862813
 O        -3.684241         1.979528        -1.320918
 C        -3.812126         2.116909        -2.680833
 O        -3.026255         2.071799        -3.600525
 H         1.870774        -0.139248        -0.485237
 H         1.972074        -0.315491         1.211283
 H         1.464420        -1.845463         0.199486
 H        -3.231726         0.401376         0.507612
 H        -3.346255        -0.633067        -2.077565
 H        -1.964843        -1.601656        -1.729530
 H        -3.372118        -1.810546        -0.795724
 H        -1.928948         2.329734        -0.128266
 H        -1.726477         1.634728        -1.754184
 H        -4.868297         2.314342        -2.982828
