19
Iteration:  4118
 C         1.400748        -1.033215         0.979125
 C         0.191645        -0.445791         0.619716
 C        -0.909705        -0.016478         0.270519
 C        -2.180411         0.207673        -0.389314
 C        -2.597498        -0.944284        -1.287842
 C        -2.236974         1.538233        -1.118765
 O        -3.624786         2.045723        -1.375224
 C        -4.050424         2.334153        -2.641726
 O        -3.516807         1.989236        -3.689652
 H         1.431774        -1.808063         1.835547
 H         1.895163        -1.478497         0.063087
 H         1.983618        -0.291101         1.439826
 H        -2.922663         0.308049         0.423351
 H        -1.802638        -1.721661        -1.343152
 H        -3.491826        -1.292406        -0.792495
 H        -2.907458        -0.408073        -2.164485
 H        -1.746028         2.301177        -0.520745
 H        -1.751163         1.612687        -2.179320
 H        -5.079025         2.756897        -2.545321
