19
Iteration:   479charge 0 multiplicity 1
 C         1.549068         0.124915        -0.015782
 C         0.086751        -0.074734        -0.042568
 C        -1.172893        -0.088838         0.029163
 C        -2.677151        -0.036831        -0.056145
 C        -3.178190        -1.467363        -0.007411
 C        -3.176164         0.521041        -1.345511
 O        -2.857102         1.944838        -1.319821
 C        -2.970044         2.634369        -2.473373
 O        -3.259758         2.127009        -3.505904
 H         1.944709         1.060342        -0.167831
 H         1.785839         0.093561         1.041707
 H         1.955493        -0.670211        -0.731130
 H        -3.117498         0.592596         0.777279
 H        -3.487969        -1.944387         0.929431
 H        -4.031047        -1.546125        -0.728664
 H        -2.399552        -2.048456        -0.546522
 H        -2.722489         0.105218        -2.216984
 H        -4.276753         0.462449        -1.534666
 H        -2.531903         3.618956        -2.311187
