19
Iteration:   295
 C         1.220853         0.446679        -0.632427
 C        -0.142846         0.034071        -0.296546
 C        -1.317999        -0.017518        -0.114371
 C        -2.764708        -0.067671        -0.011690
 C        -3.173857        -1.509562         0.144599
 C        -3.554751         0.539369        -1.171619
 O        -3.272715         1.994472        -1.223864
 C        -2.600901         2.433778        -2.286920
 O        -2.143473         1.822913        -3.248839
 H         1.976062        -0.143241         0.013881
 H         1.568706         0.412936        -1.688564
 H         1.284481         1.464745        -0.226498
 H        -3.108300         0.505398         0.884600
 H        -3.219711        -1.832518         1.179232
 H        -4.226657        -1.580043        -0.166764
 H        -2.514617        -2.181282        -0.408292
 H        -3.276043         0.133621        -2.103002
 H        -4.646850         0.503461        -1.030302
 H        -2.359980         3.541663        -2.096718
