19
Iteration:  2587
 C         1.221823         0.499521         0.482831
 C        -0.122833         0.095037         0.157400
 C        -1.307653        -0.297867        -0.029753
 C        -2.668485        -0.471497        -0.460388
 C        -3.104055        -1.988977        -0.692263
 C        -2.981925         0.507372        -1.640141
 O        -3.114179         1.830021        -1.131307
 C        -2.983105         2.756352        -2.135025
 O        -2.689783         2.652146        -3.310027
 H         2.151978        -0.089846         0.652032
 H         1.671847         0.960856        -0.438899
 H         1.248536         1.318025         1.284566
 H        -3.341244        -0.180501         0.365665
 H        -3.934114        -2.106611        -1.423817
 H        -2.291679        -2.483234        -1.174590
 H        -3.475585        -2.377933         0.256568
 H        -2.103278         0.412408        -2.276708
 H        -3.802400         0.101608        -2.276749
 H        -3.114862         3.764412        -1.723720
