19
Iteration:  4614charge 0 multiplicity 1
 C         1.426195        -0.920871         0.852076
 C         0.117973        -0.357981         0.613096
 C        -0.979218         0.018624         0.345878
 C        -2.330467         0.161411        -0.173866
 C        -2.745399        -1.185917        -0.816297
 C        -2.296816         1.303965        -1.364763
 O        -3.544343         1.139023        -2.171261
 C        -3.853136         2.211365        -2.990448
 O        -3.380817         3.328594        -2.880074
 H         1.371021        -1.446939         1.794073
 H         1.674760        -1.526736        -0.074899
 H         2.334875        -0.234460         0.894813
 H        -2.975055         0.465348         0.638557
 H        -3.889579        -1.267856        -0.764022
 H        -2.355274        -1.143560        -1.807242
 H        -2.357884        -2.051772        -0.239024
 H        -2.115908         2.312483        -1.076957
 H        -1.526926         0.951319        -2.102723
 H        -4.670144         1.935398        -3.665915
