19
Iteration:   473
 C         1.495081         0.096867        -0.011088
 C         0.050098        -0.029535        -0.114077
 C        -1.133630        -0.045088         0.069161
 C        -2.615485        -0.090769        -0.071258
 C        -3.189862        -1.470485        -0.009719
 C        -3.210960         0.572948        -1.312784
 O        -2.863520         1.924431        -1.284074
 C        -2.964013         2.613909        -2.450997
 O        -3.227979         2.105028        -3.541266
 H         1.792045         1.244989        -0.123223
 H         1.809255        -0.111707         1.051415
 H         2.050631        -0.612149        -0.668838
 H        -3.024807         0.458032         0.756887
 H        -3.433895        -1.903015         0.969266
 H        -3.993449        -1.436498        -0.740678
 H        -2.543765        -2.120399        -0.622881
 H        -2.746667         0.229104        -2.300737
 H        -4.286404         0.559179        -1.514857
 H        -2.547436         3.668748        -2.430504
