19
Iteration:  1317charge 0 multiplicity 1
 C         1.017303         0.698396         0.691971
 C        -0.357391         0.385546         0.222586
 C        -1.421228        -0.066897        -0.215396
 C        -2.743203        -0.288780        -0.705783
 C        -3.144741        -1.813764        -0.663907
 C        -2.821480         0.092970        -2.229687
 O        -2.119794         1.386010        -2.611433
 C        -2.572736         2.614282        -2.010680
 O        -3.603061         2.729649        -1.370133
 H         1.817461        -0.009160         0.341231
 H         1.189357         1.742332         0.273179
 H         0.901254         0.777544         1.736567
 H        -3.464679         0.246268        -0.119236
 H        -4.151033        -1.981472        -1.028511
 H        -2.478409        -2.379818        -1.254962
 H        -3.024099        -2.283496         0.327452
 H        -2.230637        -0.692800        -2.720692
 H        -3.852545         0.098230        -2.612304
 H        -1.826149         3.401325        -1.923579
