19
Iteration:  1921charge 0 multiplicity 1
 C         1.194188         0.382991         0.392105
 C        -0.168477         0.155795         0.157821
 C        -1.318435        -0.205412         0.097195
 C        -2.608626        -0.396641        -0.365655
 C        -2.966529        -1.919206        -0.417283
 C        -2.992117         0.458758        -1.586796
 O        -2.960684         1.923826        -1.246901
 C        -2.995154         2.776038        -2.289825
 O        -2.894959         2.471414        -3.456472
 H         1.521408         1.217070         1.029035
 H         1.679380        -0.573320         0.647475
 H         1.836123         0.609209        -0.562956
 H        -3.389714        -0.015173         0.375023
 H        -4.015609        -2.042386        -0.792909
 H        -2.372868        -2.381318        -1.214695
 H        -2.907487        -2.478233         0.547861
 H        -2.460224         0.355962        -2.564691
 H        -4.051591         0.355275        -1.723427
 H        -3.095218         3.836131        -1.970163
