19
Iteration:  1791charge 0 multiplicity 1
 C         1.444258        -0.119123         0.935867
 C         0.129286        -0.041521         0.258386
 C        -1.064309         0.026075        -0.053224
 C        -2.553810        -0.197920        -0.332295
 C        -2.802358        -1.653775        -0.556684
 C        -3.093405         0.598451        -1.639242
 O        -2.780073         1.933418        -1.474120
 C        -3.178794         2.790608        -2.457862
 O        -3.710139         2.378343        -3.453309
 H         1.629693        -1.087632         1.339996
 H         2.221724         0.011131         0.208799
 H         1.500134         0.839571         1.578071
 H        -3.117774         0.091466         0.571740
 H        -2.448172        -2.097897         0.361681
 H        -3.867144        -1.825758        -0.819901
 H        -2.012140        -1.999849        -1.261458
 H        -2.583644         0.038474        -2.506303
 H        -4.188943         0.497772        -1.834858
 H        -3.087249         3.947981        -2.305233
