19
Iteration:  2165
 C         0.989962         0.883367        -0.156573
 C        -0.474679         0.514123        -0.164034
 C        -1.572985         0.005835        -0.073874
 C        -2.894439        -0.402277        -0.374309
 C        -2.773159        -1.892585        -0.820225
 C        -3.633604         0.465639        -1.345231
 O        -3.532010         1.914455        -1.282891
 C        -2.399998         2.356038        -1.876993
 O        -1.638512         1.914635        -2.682699
 H         1.580788        -0.016781        -0.089277
 H         1.320293         1.148495        -1.121058
 H         1.408209         1.708110         0.556046
 H        -3.495346        -0.306378         0.558943
 H        -3.101108        -2.034703        -1.849089
 H        -1.721735        -2.103164        -0.934445
 H        -3.226107        -2.598594        -0.138813
 H        -3.260133         0.181749        -2.287047
 H        -4.725943         0.277627        -1.360550
 H        -2.140703         3.536624        -1.756666
