19
Iteration:  1642
 C         1.412130        -0.036257         0.809979
 C         0.019390         0.035142         0.535231
 C        -1.079902        -0.216028         0.049019
 C        -2.453614        -0.106955        -0.502311
 C        -3.225765        -1.556107        -0.558264
 C        -2.464723         0.595628        -1.906553
 O        -2.292025         2.002623        -1.808578
 C        -3.282288         2.744178        -2.415059
 O        -4.253198         2.219946        -2.903549
 H         2.020659         0.009636        -0.140341
 H         1.808017         0.629061         1.610307
 H         1.526046        -1.072154         1.045588
 H        -3.056255         0.583575         0.184180
 H        -2.350872        -2.213451        -0.704344
 H        -3.482204        -1.624830         0.493724
 H        -4.016441        -1.631591        -1.328090
 H        -1.584937         0.177556        -2.400664
 H        -3.367291         0.399550        -2.460565
 H        -3.105616         3.896773        -2.681983
