19
Iteration:  2953
 C         1.378364        -0.276978         0.871929
 C        -0.024863        -0.123718         0.469513
 C        -1.192556        -0.093934         0.103656
 C        -2.516896        -0.213726        -0.492518
 C        -2.902450        -1.700204        -0.785951
 C        -2.463843         0.685701        -1.763177
 O        -3.001363         1.988794        -1.299602
 C        -3.454553         2.771254        -2.309722
 O        -3.489995         2.635340        -3.530791
 H         2.087150        -0.742372         0.121877
 H         1.920621         0.670850         1.210564
 H         1.349015        -0.962831         1.738589
 H        -3.188771         0.049324         0.335634
 H        -3.741110        -1.723115        -1.465069
 H        -1.981743        -2.071889        -1.294696
 H        -2.945545        -2.249950         0.190171
 H        -1.405423         0.835173        -1.954470
 H        -3.181281         0.337669        -2.577181
 H        -4.161088         3.537047        -1.783725
