19
Iteration:    61charge 0 multiplicity 1
 C         1.253662         0.444170        -0.701977
 C        -0.190584         0.244446        -0.368655
 C        -1.407520         0.264861        -0.162384
 C        -2.873915        -0.020020         0.049093
 C        -3.153644        -1.506956         0.245407
 C        -3.703545         0.335579        -1.196051
 O        -3.296597         1.930468        -1.284299
 C        -2.518340         2.315951        -2.246492
 O        -1.916725         1.777475        -3.165345
 H         1.638648         1.458734        -1.054682
 H         1.838649         0.136669         0.277188
 H         1.529628        -0.202943        -1.653206
 H        -3.286337         0.548393         0.892526
 H        -2.414739        -2.100248         0.832818
 H        -4.120550        -1.599462         0.789709
 H        -3.219754        -1.980813        -0.760013
 H        -3.373263        -0.159589        -2.155483
 H        -4.770490         0.375416        -0.914097
 H        -2.470558         3.477551        -2.119207
