19
Iteration:  4882
 C         1.230863        -0.053576         1.172563
 C        -0.084806        -0.153080         0.564357
 C        -1.032039        -0.025758        -0.182061
 C        -2.278224         0.053550        -0.924838
 C        -3.268217        -1.155461        -0.478633
 C        -2.144094         0.487083        -2.473930
 O        -3.431587         1.115787        -2.806631
 C        -3.649371         2.415021        -2.319056
 O        -2.953340         2.940913        -1.466740
 H         2.116050         0.309059         0.515687
 H         1.186718         0.716839         1.944413
 H         1.581327        -0.992770         1.670828
 H        -2.672629         0.919555        -0.456297
 H        -4.172321        -1.073057        -1.144810
 H        -2.871666        -2.145792        -0.427040
 H        -3.436844        -0.899345         0.562665
 H        -1.291248         1.330324        -2.443247
 H        -2.132884        -0.350150        -3.204941
 H        -4.659114         2.683287        -2.575118
