19
Iteration:  1558charge 0 multiplicity 1
 C         1.303074        -0.036247         0.918889
 C        -0.114894         0.015760         0.532717
 C        -1.135930         0.070490        -0.109286
 C        -2.451109        -0.110341        -0.664738
 C        -3.115627        -1.537483        -0.424751
 C        -2.447184         0.424057        -2.133693
 O        -2.146622         1.865287        -2.198248
 C        -3.206364         2.740858        -2.369531
 O        -4.324693         2.310403        -2.358368
 H         1.539811         1.056569         0.987115
 H         1.493485        -0.521279         1.932454
 H         1.931570        -0.538541         0.195226
 H        -2.959745         0.674721        -0.124587
 H        -4.038462        -1.629555         0.257402
 H        -3.328508        -2.123949        -1.320363
 H        -2.370691        -2.191320        -0.002752
 H        -1.714660         0.031187        -2.814994
 H        -3.448964         0.200865        -2.506581
 H        -2.774585         3.658663        -2.326380
