19
Iteration:  1294
 C         0.982380         0.819974         0.604002
 C        -0.372715         0.308469         0.127879
 C        -1.479133         0.011473        -0.186567
 C        -2.751666        -0.268465        -0.748003
 C        -3.130072        -1.786077        -0.778593
 C        -2.823312         0.052838        -2.166066
 O        -2.135025         1.308329        -2.393972
 C        -2.507593         2.474847        -1.932387
 O        -3.555476         2.799352        -1.428681
 H         1.787809         0.312195        -0.031335
 H         1.101302         1.959094         0.490067
 H         1.007290         0.445718         1.592966
 H        -3.528565         0.210151        -0.182299
 H        -3.651797        -2.115980        -1.658716
 H        -2.245981        -2.369172        -0.566441
 H        -3.673169        -2.087874         0.145300
 H        -2.275894        -0.718922        -2.715199
 H        -3.853457         0.155181        -2.503361
 H        -1.840193         3.358789        -2.062395
