19
Iteration:  1944
 C         1.294003         0.500318         0.304171
 C        -0.125171         0.161215         0.256711
 C        -1.290558        -0.107008         0.038682
 C        -2.784691        -0.374010        -0.318764
 C        -3.086698        -1.913413        -0.460589
 C        -3.079128         0.371495        -1.612513
 O        -3.040003         1.749575        -1.260044
 C        -2.869386         2.728581        -2.221514
 O        -2.791024         2.552758        -3.425799
 H         1.522224         1.500419         0.629298
 H         1.851771        -0.229417         0.883252
 H         1.953811         0.451677        -0.697889
 H        -3.561855         0.022414         0.414578
 H        -4.033772        -2.308861        -0.049507
 H        -3.017598        -2.227775        -1.496440
 H        -2.287584        -2.442386         0.126590
 H        -2.244495         0.240857        -2.375336
 H        -4.043265         0.195426        -2.070824
 H        -2.755281         3.786986        -1.854982
