19
Iteration:  1362charge 0 multiplicity 1
 C         1.033901         0.583740         0.900145
 C        -0.271940         0.186286         0.337667
 C        -1.283190         0.034937        -0.343619
 C        -2.699513        -0.186578        -0.807979
 C        -3.121876        -1.661621        -0.569302
 C        -2.836825         0.130218        -2.274222
 O        -2.103669         1.530764        -2.655402
 C        -2.785385         2.531261        -2.162895
 O        -3.633188         2.551666        -1.309177
 H         1.397231        -0.396404         1.203002
 H         1.672949         1.066600         0.104700
 H         0.795546         1.256673         1.690279
 H        -3.342377         0.531869        -0.348289
 H        -3.870290        -1.848499         0.192319
 H        -3.518029        -2.186615        -1.384179
 H        -2.237237        -2.219172        -0.362446
 H        -2.324715        -0.532454        -2.987340
 H        -3.903681         0.308733        -2.554353
 H        -2.503791         3.507489        -2.693242
