19
Iteration:  4499
 C         1.488686        -0.521712         1.065486
 C         0.185413        -0.369091         0.472214
 C        -0.910906        -0.306458        -0.093193
 C        -2.300324         0.008278        -0.366698
 C        -2.869420        -1.369347        -1.019424
 C        -2.456158         1.227756        -1.223772
 O        -3.823311         1.598060        -1.578038
 C        -3.899393         2.420648        -2.700302
 O        -2.964978         2.920669        -3.319422
 H         1.967038        -1.575885         1.061578
 H         2.124048         0.264145         0.696567
 H         1.415770        -0.281954         2.156733
 H        -2.917758         0.227753         0.530238
 H        -3.638078        -1.464055        -1.769801
 H        -2.047575        -2.058748        -1.421335
 H        -3.371888        -2.045597        -0.334820
 H        -2.039699         2.090638        -0.672076
 H        -2.012580         1.147115        -2.236474
 H        -4.955684         2.552976        -2.907892
