19
Iteration:  2089
 C         1.179689         0.854785         0.058790
 C        -0.199355         0.439517        -0.023594
 C        -1.322980        -0.013738        -0.319978
 C        -2.792655        -0.384871        -0.344343
 C        -2.968948        -1.889608        -0.760351
 C        -3.558217         0.470026        -1.419947
 O        -3.635059         1.900391        -1.321656
 C        -2.547562         2.504236        -1.945564
 O        -1.920670         1.900945        -2.796888
 H         1.580638         0.449739        -0.861228
 H         1.378360         1.913504         0.164554
 H         1.760529         0.463141         0.995913
 H        -3.322452        -0.168452         0.633731
 H        -2.019141        -2.182776        -1.143430
 H        -3.213112        -2.477079         0.124858
 H        -3.787579        -2.086983        -1.441479
 H        -3.345895         0.097433        -2.396028
 H        -4.626521         0.246844        -1.179269
 H        -2.192514         3.379915        -1.561974
