19
Iteration:  2161
 C         1.000897         0.874286        -0.127685
 C        -0.453467         0.507497        -0.186347
 C        -1.598798         0.017150        -0.117076
 C        -2.915440        -0.411006        -0.359879
 C        -2.754175        -1.890422        -0.808365
 C        -3.636822         0.469201        -1.337798
 O        -3.517256         1.929883        -1.287468
 C        -2.429201         2.399326        -1.908956
 O        -1.632804         1.877287        -2.661823
 H         1.460965        -0.123224        -0.165187
 H         1.406036         1.356342        -1.089205
 H         1.338759         1.640833         0.491294
 H        -3.473839        -0.329112         0.561658
 H        -3.027247        -1.857853        -1.877254
 H        -1.654650        -2.129569        -0.865838
 H        -3.230214        -2.667504        -0.146778
 H        -3.253792         0.185841        -2.345332
 H        -4.686369         0.183456        -1.253113
 H        -2.231327         3.454029        -1.575452
