19
Iteration:  1239
 C         0.826501         0.869363         0.415409
 C        -0.476007         0.378842         0.209741
 C        -1.457482        -0.224000        -0.227052
 C        -2.758246        -0.427621        -0.670642
 C        -3.164330        -1.848786        -0.612689
 C        -2.881029         0.218241        -2.188070
 O        -1.951375         1.409164        -2.379548
 C        -2.427928         2.560675        -1.960433
 O        -3.524461         2.714126        -1.435841
 H         1.026458         1.093796        -0.726999
 H         0.804039         1.746451         1.182079
 H         1.559402         0.172329         0.773226
 H        -3.402747         0.195826        -0.051595
 H        -2.338042        -2.400273        -1.086653
 H        -2.928391        -2.314164         0.362054
 H        -4.151087        -2.099272        -1.077333
 H        -2.523113        -0.471727        -2.957377
 H        -3.888216         0.612472        -2.345040
 H        -1.682990         3.394859        -2.227201
