19
Iteration:  3423
 C         1.201044        -0.170813         1.134117
 C        -0.148917        -0.009711         0.542881
 C        -1.275216        -0.137587         0.175355
 C        -2.592000        -0.307284        -0.476206
 C        -2.652169        -1.827332        -1.076087
 C        -2.825574         0.647491        -1.764708
 O        -2.388736         2.024995        -1.564483
 C        -3.012220         2.797938        -2.471501
 O        -4.016749         2.624462        -3.151698
 H         1.907720        -0.175632         0.181689
 H         1.553571         0.739489         1.530795
 H         1.557510        -1.120096         1.638749
 H        -3.397860         0.107598         0.200684
 H        -3.680427        -2.003951        -1.282919
 H        -2.084441        -1.753500        -1.981438
 H        -2.218678        -2.454960        -0.310238
 H        -2.425396         0.209310        -2.642386
 H        -3.947210         0.644237        -1.818442
 H        -2.347754         3.749111        -2.451699
