19
Iteration:    10
 C         1.312333         0.313830        -0.458678
 C        -0.119711         0.229761        -0.219537
 C        -1.304514         0.033269        -0.121610
 C        -2.771384        -0.043331         0.031561
 C        -3.131581        -1.532757         0.260398
 C        -3.546227         0.521419        -1.201499
 O        -3.319233         1.982689        -1.279556
 C        -2.573291         2.500458        -2.437577
 O        -2.307439         1.770674        -3.391060
 H         1.518606         1.367389         0.264143
 H         1.917821        -0.433465        -0.140403
 H         1.395305         0.416771        -1.484319
 H        -3.073092         0.589075         0.931400
 H        -2.415449        -1.940588         0.961823
 H        -4.155010        -1.789685         0.478249
 H        -2.864186        -1.978412        -0.684154
 H        -3.115721         0.024655        -2.105921
 H        -4.538029         0.165294        -1.156778
 H        -2.233302         3.471650        -2.210695
