19
Iteration:   286
 C         1.192479         0.483921        -0.637394
 C        -0.127789         0.036331        -0.307605
 C        -1.338867        -0.095021        -0.084988
 C        -2.756645        -0.050663         0.078728
 C        -3.158010        -1.521178         0.178369
 C        -3.631691         0.527335        -1.216804
 O        -3.353427         2.017807        -1.264063
 C        -2.461237         2.482724        -2.300098
 O        -2.126642         1.826402        -3.236514
 H         2.167820        -0.233574        -0.334701
 H         1.341402         0.486226        -1.737075
 H         1.381245         1.465432        -0.329805
 H        -2.958221         0.620673         1.039468
 H        -3.091104        -2.002088         1.145658
 H        -4.138147        -1.654070        -0.233200
 H        -2.623727        -2.175786        -0.518565
 H        -3.235423        -0.012223        -2.039314
 H        -4.677605         0.256159        -1.116695
 H        -2.300136         3.596956        -2.019309
