19
Iteration:   878charge 0 multiplicity 1
 C         1.472390        -0.003963         0.713081
 C         0.113949        -0.166464         0.306701
 C        -1.061052         0.034872         0.021447
 C        -2.506141         0.077862        -0.475779
 C        -3.352460        -1.311631        -0.352725
 C        -2.472471         0.316059        -1.910286
 O        -2.208345         1.702712        -2.324579
 C        -3.179112         2.603286        -2.299609
 O        -4.375213         2.457709        -2.446317
 H         2.162700         0.529735         0.008965
 H         1.584151         0.507425         1.692362
 H         1.910248        -1.135399         0.863978
 H        -3.202848         0.815657        -0.044309
 H        -3.023065        -1.968722         0.443892
 H        -4.406914        -1.132823        -0.162442
 H        -3.265420        -1.978033        -1.173471
 H        -1.724255        -0.199304        -2.514297
 H        -3.451263         0.091041        -2.368998
 H        -2.654671         3.533595        -2.085221
