19
Iteration:  1808
 C         1.433977        -0.051953         0.850235
 C         0.062217        -0.047069         0.272171
 C        -1.121305         0.005955        -0.027631
 C        -2.526669        -0.187879        -0.329779
 C        -2.785564        -1.795206        -0.589490
 C        -3.057683         0.577256        -1.507169
 O        -2.750975         2.066130        -1.397912
 C        -3.217597         2.742985        -2.488668
 O        -3.641075         2.399907        -3.566540
 H         1.265454        -0.865422         1.633099
 H         2.217714        -0.116552         0.023540
 H         1.622946         0.802498         1.436329
 H        -3.109378         0.102912         0.576533
 H        -2.045106        -2.441169        -0.044961
 H        -3.848170        -1.934387        -0.279876
 H        -2.662081        -2.081822        -1.644250
 H        -2.718428         0.233685        -2.455348
 H        -4.142530         0.422180        -1.425726
 H        -2.978036         3.735609        -2.193725
