19
Iteration:  2598
 C         1.241720         0.558262         0.360066
 C        -0.207713         0.048607         0.264582
 C        -1.326681        -0.287852        -0.003404
 C        -2.727743        -0.489889        -0.457587
 C        -3.083833        -1.943923        -0.728638
 C        -2.866021         0.410285        -1.634089
 O        -3.005679         1.834713        -1.170536
 C        -3.055315         2.784429        -2.124265
 O        -2.691436         2.654259        -3.275979
 H         1.670241        -0.316584         0.840607
 H         1.602849         0.973101        -0.589738
 H         1.182059         1.414512         1.096372
 H        -3.345184        -0.042752         0.331402
 H        -3.864224        -2.034123        -1.507846
 H        -2.263805        -2.602585        -0.901639
 H        -3.475412        -2.399653         0.183005
 H        -2.082564         0.413499        -2.379539
 H        -3.867249         0.322151        -2.086393
 H        -3.297930         3.722166        -1.588192
