19
Iteration:  3615charge 0 multiplicity 1
 C         1.479730        -0.494621         0.993875
 C         0.071147        -0.372024         0.426689
 C        -1.103233        -0.225241         0.233024
 C        -2.327034        -0.054517        -0.495052
 C        -2.863846        -1.527344        -0.910102
 C        -2.217936         1.053943        -1.601813
 O        -3.292467         2.039736        -1.306611
 C        -3.765922         2.710157        -2.436540
 O        -3.551335         2.476561        -3.612839
 H         1.190290        -1.088904         1.838133
 H         2.089253        -1.056392         0.184508
 H         1.730017         0.490410         1.421470
 H        -3.154012         0.272305         0.191283
 H        -3.947899        -1.662108        -0.971074
 H        -2.312623        -1.801528        -1.870094
 H        -2.544178        -2.148469        -0.034537
 H        -1.270208         1.595569        -1.629454
 H        -2.485417         0.646862        -2.523751
 H        -4.307638         3.643939        -2.057608
