19
Iteration:  2344charge 0 multiplicity 1
 C         1.073062         0.764921         0.285354
 C        -0.264772         0.278293        -0.091329
 C        -1.356627        -0.189958        -0.195563
 C        -2.805854        -0.385760        -0.378842
 C        -3.185199        -1.959063        -0.513312
 C        -3.211990         0.344766        -1.688373
 O        -3.349859         1.741349        -1.259687
 C        -2.580292         2.643492        -1.965942
 O        -2.095312         2.409825        -3.054496
 H         0.871948         1.807475         0.541046
 H         1.637951         0.292048         1.096512
 H         1.851221         0.741091        -0.524889
 H        -3.401741         0.012139         0.460766
 H        -2.714624        -2.485439         0.286632
 H        -4.235694        -2.185844        -0.405113
 H        -2.983167        -2.284768        -1.510647
 H        -2.374690         0.259133        -2.420348
 H        -4.200663         0.003914        -2.004136
 H        -2.543638         3.685675        -1.545125
