19
Iteration:  1516
 C         1.220937        -0.000661         1.102478
 C        -0.010447         0.149987         0.366637
 C        -1.105586         0.023384        -0.086341
 C        -2.502724        -0.050889        -0.663735
 C        -3.028567        -1.433317        -0.555006
 C        -2.506431         0.267552        -2.137562
 O        -2.210351         1.679622        -2.463996
 C        -3.162601         2.640952        -2.319067
 O        -4.291616         2.475257        -2.049456
 H         1.360683         0.838744         1.756528
 H         1.300436        -1.011756         1.563077
 H         1.997454         0.051560         0.282548
 H        -3.240926         0.593155        -0.228655
 H        -3.936975        -1.509066        -1.186989
 H        -2.152360        -2.046675        -0.838540
 H        -3.330743        -1.708834         0.440475
 H        -1.767459        -0.376688        -2.627814
 H        -3.526767         0.100268        -2.570364
 H        -2.752821         3.660532        -2.496005
