19
Iteration:  1042charge 0 multiplicity 1
 C         1.169121         0.234477         0.804930
 C        -0.198179         0.227500         0.437199
 C        -1.212161         0.075665        -0.231880
 C        -2.568658        -0.151383        -0.758763
 C        -2.978614        -1.589046        -0.362653
 C        -2.788977         0.209759        -2.268029
 O        -2.238295         1.437691        -2.642405
 C        -3.048174         2.596594        -2.401770
 O        -3.801830         2.720561        -1.474997
 H         1.277670        -0.413084         1.704583
 H         1.923771        -0.191294         0.131586
 H         1.338581         1.156734         1.119582
 H        -3.250978         0.574965        -0.279290
 H        -3.833882        -1.546144         0.373092
 H        -3.410974        -2.032648        -1.291209
 H        -2.222091        -2.114976         0.218834
 H        -2.314215        -0.589309        -2.888546
 H        -3.884076         0.075432        -2.513101
 H        -2.686093         3.539878        -2.948448
