19
Iteration:  1135charge 0 multiplicity 1
 C         1.041710         0.719857         0.689307
 C        -0.312913         0.284453         0.266910
 C        -1.372755         0.067339        -0.385476
 C        -2.719581        -0.331271        -0.849298
 C        -3.301680        -1.649954        -0.445723
 C        -2.787729         0.134070        -2.323739
 O        -2.020818         1.382643        -2.540307
 C        -2.640611         2.546100        -2.021920
 O        -3.616571         2.542920        -1.274799
 H         1.072995         1.699402         1.055036
 H         1.731697         0.150760         1.230272
 H         1.383331         0.921867        -0.391415
 H        -3.468996         0.303940        -0.325402
 H        -2.964178        -1.950596         0.530133
 H        -4.369913        -1.541798        -0.558254
 H        -2.891180        -2.394884        -1.095547
 H        -2.488071        -0.669876        -2.995852
 H        -3.819417         0.390668        -2.545571
 H        -2.065587         3.253307        -2.631336
