19
Iteration:  1967charge 0 multiplicity 1
 C         1.188181         0.545973         0.259254
 C        -0.148713         0.168194         0.199270
 C        -1.329822        -0.013201        -0.022238
 C        -2.643982        -0.399799        -0.277385
 C        -3.114296        -1.822393        -0.501329
 C        -3.141647         0.279062        -1.593534
 O        -3.157368         1.660193        -1.297055
 C        -2.723298         2.650946        -2.141370
 O        -2.657916         2.585079        -3.354220
 H         1.089916         1.606179         0.163890
 H         1.792328         0.307141         1.101167
 H         1.848058         0.322721        -0.719017
 H        -3.280160         0.004615         0.579670
 H        -3.715973        -2.081444         0.378602
 H        -3.711017        -2.023253        -1.382066
 H        -2.264173        -2.480324        -0.367714
 H        -2.302799         0.117506        -2.330850
 H        -4.114774        -0.041089        -1.991288
 H        -2.541594         3.667268        -1.715528
