19
Iteration:  4323charge 0 multiplicity 1
 C         1.401087        -0.621662         1.090966
 C         0.060854        -0.266871         0.622057
 C        -1.092960        -0.168071         0.149738
 C        -2.409934        -0.052783        -0.558434
 C        -2.679608        -1.333160        -1.384210
 C        -2.294955         1.309047        -1.309377
 O        -3.497328         2.012538        -1.247641
 C        -3.779524         2.610559        -2.474034
 O        -3.340855         2.215085        -3.518489
 H         2.130212         0.208331         0.821604
 H         1.584463        -0.803801         2.134746
 H         1.588894        -1.649524         0.556942
 H        -3.203969         0.079282         0.150269
 H        -3.762857        -1.765402        -1.477128
 H        -2.522681        -1.319843        -2.459901
 H        -1.997561        -2.132902        -1.080636
 H        -1.496885         1.891078        -0.990389
 H        -2.047535         1.040985        -2.383541
 H        -4.564011         3.317647        -2.282448
