19
Iteration:  3880charge 0 multiplicity 1
 C         1.481401        -0.756254         0.400759
 C         0.054043        -0.388545         0.588704
 C        -1.129724        -0.163455         0.401826
 C        -2.436098         0.188025        -0.202982
 C        -2.771510        -0.995161        -1.221082
 C        -2.298597         1.598004        -0.861679
 O        -3.696815         1.973720        -1.312944
 C        -3.790737         2.133106        -2.692218
 O        -3.028183         2.078456        -3.619298
 H         1.879007        -0.189797        -0.384845
 H         2.111397        -0.372375         1.303004
 H         1.567137        -1.876738         0.168889
 H        -3.273718         0.369531         0.557557
 H        -3.475767        -0.748508        -2.046204
 H        -1.925483        -1.533621        -1.577483
 H        -3.275743        -1.845358        -0.813479
 H        -1.948385         2.246278        -0.149683
 H        -1.710906         1.674702        -1.791607
 H        -4.889993         2.274397        -2.936134
