19
Iteration:  4096charge 0 multiplicity 1
 C         1.544042        -0.863131         0.953731
 C         0.116193        -0.566736         0.696460
 C        -0.940776        -0.191577         0.243680
 C        -2.294968         0.262273        -0.403297
 C        -2.817796        -0.915912        -1.367469
 C        -2.154605         1.657243        -1.115876
 O        -3.548004         2.098584        -1.380058
 C        -4.048868         2.147493        -2.588419
 O        -3.459456         2.001684        -3.650061
 H         1.885839        -1.775983         1.593028
 H         2.041334        -1.015054        -0.040254
 H         1.957268        -0.223308         1.656527
 H        -3.000319         0.408209         0.418379
 H        -2.115163        -1.740948        -1.014741
 H        -3.801486        -1.246955        -1.089912
 H        -2.611751        -0.599181        -2.391457
 H        -1.547429         2.446242        -0.670340
 H        -1.704437         1.446737        -2.203416
 H        -5.071293         2.560971        -2.439486
