19
Iteration:  2116
 C         1.083370         0.819325        -0.035482
 C        -0.262832         0.429498        -0.099611
 C        -1.447070         0.160162        -0.282409
 C        -2.821984        -0.333138        -0.412222
 C        -2.852410        -1.800841        -0.820722
 C        -3.704377         0.462725        -1.437104
 O        -3.570018         1.831959        -1.166502
 C        -2.548241         2.394449        -1.991841
 O        -1.712950         1.829852        -2.660999
 H         1.801527         0.220184        -0.652692
 H         1.273945         1.933540        -0.320347
 H         1.308025         0.865926         0.977663
 H        -3.368172        -0.230930         0.514020
 H        -2.134877        -2.086055        -1.632501
 H        -2.448286        -2.343757         0.081076
 H        -3.895481        -2.187272        -0.850316
 H        -3.553112         0.131566        -2.519333
 H        -4.756922         0.284830        -1.214040
 H        -2.250604         3.452715        -1.802101
