19
Iteration:  3287charge 0 multiplicity 1
 C         1.006300         0.503552         0.933925
 C        -0.163604        -0.053978         0.303701
 C        -1.238636        -0.420390        -0.158221
 C        -2.619573        -0.472295        -0.704602
 C        -3.124208        -1.913014        -0.685145
 C        -2.613281         0.382973        -1.943680
 O        -2.356066         1.745585        -1.452625
 C        -2.866959         2.847299        -2.151736
 O        -3.717647         2.879235        -3.015505
 H         0.746533         1.552665         0.987104
 H         1.219407         0.172584         2.082914
 H         1.897362         0.469596         0.283318
 H        -3.170022         0.206934        -0.032201
 H        -4.182559        -2.216772        -0.574429
 H        -2.792533        -2.555667        -1.502399
 H        -2.692468        -2.301864         0.252717
 H        -1.645481         0.222784        -2.557717
 H        -3.570863         0.397987        -2.497167
 H        -2.406187         3.797126        -1.718852
