19
Iteration:  1755charge 0 multiplicity 1
 C         1.398768        -0.152974         0.912429
 C         0.049941        -0.020350         0.435316
 C        -1.010328         0.067995        -0.148071
 C        -2.445554        -0.209357        -0.421324
 C        -2.847168        -1.672428        -0.426190
 C        -2.835542         0.560894        -1.767543
 O        -2.719154         1.975822        -1.478518
 C        -3.205748         2.766219        -2.480034
 O        -3.958126         2.429670        -3.417275
 H         1.722714        -1.219634         0.893414
 H         2.046648         0.431168         0.185242
 H         1.594605         0.080171         1.928748
 H        -3.069840         0.135611         0.475051
 H        -3.700941        -1.724266         0.235723
 H        -3.309626        -2.148775        -1.307749
 H        -2.075186        -2.398732        -0.245650
 H        -2.225563         0.292660        -2.616676
 H        -3.890968         0.436086        -1.998116
 H        -2.739203         3.791422        -2.119504
