19
Iteration:  4050
 C         1.476735        -0.575253         0.986531
 C         0.124270        -0.409784         0.372122
 C        -1.023998        -0.324606        -0.003595
 C        -2.324614         0.163030        -0.354139
 C        -3.138835        -0.817913        -1.417991
 C        -2.072830         1.558617        -1.026848
 O        -3.394848         2.059068        -1.256913
 C        -3.922903         2.132360        -2.539060
 O        -3.300401         1.856285        -3.525975
 H         1.936450        -1.643039         1.291802
 H         2.221404        -0.137611         0.363135
 H         1.415665        -0.239588         2.010001
 H        -3.003895         0.284764         0.541338
 H        -3.703117        -1.592668        -0.818678
 H        -3.983372        -0.377012        -1.962911
 H        -2.419169        -1.370655        -2.089050
 H        -1.568712         2.276650        -0.383863
 H        -1.386320         1.309108        -1.885242
 H        -5.031406         2.340911        -2.384812
