19
Iteration:    40charge 0 multiplicity 1
 C         1.189358         0.368018        -0.599190
 C        -0.164699         0.180453        -0.242537
 C        -1.354883         0.192711        -0.103328
 C        -2.787232        -0.082358        -0.017960
 C        -3.092087        -1.600157         0.288863
 C        -3.602517         0.584323        -1.174228
 O        -3.404170         1.918927        -1.394654
 C        -2.461248         2.400073        -2.310262
 O        -2.096824         1.804097        -3.270217
 H         1.469038         1.510175        -0.689326
 H         1.944499        -0.040518         0.122769
 H         1.387647         0.208287        -1.690734
 H        -3.123307         0.408416         0.934287
 H        -2.225376        -2.017988         0.839104
 H        -3.935870        -1.701365         0.987827
 H        -3.226270        -2.233949        -0.601873
 H        -3.356374         0.059021        -2.143422
 H        -4.652399         0.506585        -0.857328
 H        -2.184035         3.432360        -1.999718
