19
Iteration:   786charge 0 multiplicity 1
 C         1.443323        -0.263701         0.603093
 C         0.093332        -0.148654         0.133629
 C        -1.101117         0.014166         0.229295
 C        -2.461878         0.025374        -0.362111
 C        -3.070141        -1.340966        -0.109012
 C        -2.608886         0.387586        -1.897006
 O        -2.248589         1.857332        -2.106682
 C        -3.278741         2.691400        -2.402220
 O        -4.357213         2.437157        -2.868052
 H         1.564985         0.643880         1.421529
 H         1.747818        -1.151266         1.230601
 H         2.127396         0.159022        -0.053881
 H        -3.060057         0.783915         0.079319
 H        -3.384600        -1.538602         0.938800
 H        -3.988344        -1.296634        -0.701003
 H        -2.339725        -2.168333        -0.328950
 H        -1.989286        -0.221148        -2.524974
 H        -3.648312         0.272034        -2.208554
 H        -2.757519         3.654495        -2.254702
