19
Iteration:  1144
 C         1.000654         0.764897         0.588435
 C        -0.402546         0.314418         0.263364
 C        -1.378687        -0.021214        -0.349042
 C        -2.688471        -0.282565        -0.807774
 C        -3.286793        -1.688185        -0.518688
 C        -2.766416         0.154553        -2.292361
 O        -2.011205         1.353998        -2.510474
 C        -2.644719         2.486601        -2.045334
 O        -3.577301         2.602139        -1.279723
 H         0.918776         1.744119         0.916397
 H         1.500915         0.150692         1.319263
 H         1.641097         0.784283        -0.283911
 H        -3.288137         0.417234        -0.169476
 H        -2.850068        -1.967009         0.438970
 H        -4.311582        -1.598856        -0.183189
 H        -3.114374        -2.525647        -1.234909
 H        -2.275718        -0.622235        -2.937567
 H        -3.837289         0.317598        -2.597034
 H        -2.163995         3.478859        -2.302032
