19
Iteration:  2469charge 0 multiplicity 1
 C         1.225651         0.073587         0.610204
 C        -0.078844         0.179975         0.054411
 C        -1.320956         0.219683        -0.118008
 C        -2.650995        -0.236842        -0.383298
 C        -2.603642        -1.731370        -0.809821
 C        -3.418556         0.472217        -1.498168
 O        -3.557579         1.875020        -1.338688
 C        -2.900573         2.676392        -2.152695
 O        -2.395655         2.292102        -3.173042
 H         1.971837         0.141668        -0.220885
 H         1.655462         0.910586         1.265047
 H         1.071959        -0.828523         1.118582
 H        -3.243601        -0.221721         0.571717
 H        -2.920723        -2.480934        -0.028617
 H        -3.388308        -1.785208        -1.552573
 H        -1.623252        -2.189231        -1.013730
 H        -2.972912         0.311084        -2.509692
 H        -4.470008         0.085734        -1.590300
 H        -3.064969         3.778598        -1.915683
