19
Iteration:  2682charge 0 multiplicity 1
 C         1.005309         0.495953         0.343390
 C        -0.381530         0.054729         0.268565
 C        -1.538570        -0.253172         0.227684
 C        -2.820113        -0.451463        -0.450086
 C        -2.832409        -2.028552        -0.824525
 C        -2.873471         0.436498        -1.670421
 O        -2.608025         1.856182        -1.155040
 C        -2.648593         2.762805        -2.147899
 O        -3.140342         2.702355        -3.263885
 H         1.612039         0.582125         1.257286
 H         1.632617        -0.340309        -0.157888
 H         1.232842         1.481254        -0.250449
 H        -3.713596        -0.098905         0.166484
 H        -3.887938        -2.361406        -1.020973
 H        -2.190934        -1.928319        -1.772128
 H        -2.340148        -2.464179         0.140413
 H        -2.103914         0.061743        -2.325708
 H        -3.855027         0.379197        -2.266121
 H        -2.553516         3.786466        -1.645461
