19
Iteration:  3110
 C         1.192672        -0.180992         0.923279
 C        -0.125190         0.215919         0.483251
 C        -1.186876        -0.040252        -0.067332
 C        -2.585134        -0.339125        -0.600864
 C        -2.702733        -1.904855        -0.721169
 C        -2.859518         0.416790        -1.840771
 O        -2.767541         1.845933        -1.402200
 C        -3.102615         2.967605        -2.214053
 O        -3.584498         2.789287        -3.301648
 H         1.311940        -0.981406         1.607759
 H         1.882487        -0.523545         0.016310
 H         1.726603         0.674626         1.325708
 H        -3.262168        -0.015028         0.208757
 H        -3.605688        -2.261228        -1.226730
 H        -1.867381        -2.270321        -1.264824
 H        -2.599286        -2.413472         0.232373
 H        -2.255016         0.126696        -2.759550
 H        -3.848791         0.189572        -2.241843
 H        -2.647327         3.944968        -1.819308
