19
Iteration:  1947
 C         1.298304         0.531178         0.295983
 C        -0.125212         0.143922         0.265172
 C        -1.299195        -0.082012         0.003833
 C        -2.802436        -0.352610        -0.298505
 C        -3.099701        -1.914589        -0.450520
 C        -3.054976         0.345719        -1.606061
 O        -3.057842         1.740778        -1.277422
 C        -2.854652         2.711890        -2.208964
 O        -2.776338         2.555379        -3.413531
 H         1.535665         1.529799         0.553641
 H         1.856464        -0.188927         0.828282
 H         1.919322         0.360321        -0.599255
 H        -3.546348         0.049126         0.410430
 H        -3.994260        -2.311109        -0.021228
 H        -3.041286        -2.150594        -1.514090
 H        -2.290774        -2.570012        -0.084202
 H        -2.293087         0.195237        -2.386256
 H        -4.072344         0.175564        -2.050405
 H        -2.684157         3.803481        -1.722875
