19
Iteration:  4720
 C         1.570659        -0.598615         1.055366
 C         0.196729        -0.400615         0.562054
 C        -0.949526        -0.276322         0.115802
 C        -2.278513         0.165879        -0.457870
 C        -3.294542        -1.054733        -0.743263
 C        -1.999374         1.053178        -1.693234
 O        -3.283183         1.083539        -2.352653
 C        -3.869278         2.239384        -2.756690
 O        -3.573885         3.363926        -2.466516
 H         1.665968         0.107058         1.936028
 H         1.450136        -1.478688         1.715740
 H         2.406315        -0.507160         0.442567
 H        -2.831145         0.866236         0.285604
 H        -3.992913        -0.733981        -1.613107
 H        -2.996735        -2.037280        -1.102044
 H        -3.970217        -1.338168         0.095241
 H        -1.606423         2.068016        -1.413667
 H        -1.366335         0.712420        -2.519340
 H        -4.790801         1.875351        -3.345685
