19
Iteration:   827
 C         1.473023        -0.139263         0.586971
 C        -0.004329        -0.075428         0.454007
 C        -1.037407        -0.085582        -0.164906
 C        -2.478184        -0.034774        -0.390438
 C        -3.269685        -1.314460        -0.207551
 C        -2.556386         0.477943        -1.848346
 O        -2.157533         1.890554        -2.027216
 C        -3.215474         2.635730        -2.608744
 O        -4.366692         2.329243        -2.553933
 H         1.769041         0.922735         0.627154
 H         1.837345        -0.565950         1.558106
 H         2.014903        -0.708686        -0.151156
 H        -2.919569         0.738341         0.294919
 H        -3.588097        -1.539035         0.846643
 H        -4.189634        -1.439304        -0.864319
 H        -2.678616        -2.230533        -0.552910
 H        -1.754932        -0.028315        -2.459555
 H        -3.542420         0.354030        -2.403200
 H        -2.727337         3.640452        -3.080362
