19
Iteration:   930charge 0 multiplicity 1
 C         1.328708        -0.017471         0.845030
 C        -0.004355         0.038993         0.294204
 C        -1.125332        -0.014894        -0.196793
 C        -2.550453        -0.130082        -0.630214
 C        -3.148190        -1.384476        -0.133837
 C        -2.692271         0.376771        -2.221498
 O        -2.076829         1.730142        -2.344037
 C        -3.080432         2.671067        -2.362858
 O        -4.271250         2.419106        -2.130252
 H         2.132711        -0.385619         0.125583
 H         1.563314         0.999745         1.044583
 H         1.454695        -0.538879         1.712445
 H        -3.173498         0.575049        -0.073598
 H        -2.988910        -1.512191         0.958293
 H        -4.258291        -1.400392        -0.256589
 H        -2.716436        -2.335426        -0.537611
 H        -2.113887        -0.183673        -2.956525
 H        -3.693791         0.479920        -2.568811
 H        -2.590084         3.662512        -2.624221
