19
Iteration:   200charge 0 multiplicity 1
 C         1.013761         0.528119        -0.951594
 C        -0.385613         0.410826        -0.559186
 C        -1.480822         0.097932        -0.084465
 C        -2.830088        -0.101524         0.015686
 C        -3.268901        -1.678745         0.415608
 C        -3.435885         0.442714        -1.299513
 O        -3.350009         1.930728        -1.267254
 C        -2.408763         2.415088        -2.179224
 O        -1.674565         1.738881        -2.911168
 H         1.238458        -0.212060        -1.922811
 H         1.274375         1.491191        -1.426527
 H         1.507432         0.352798        -0.005099
 H        -3.243559         0.566619         0.837998
 H        -2.513932        -2.243740         0.993523
 H        -4.258288        -1.734102         0.881576
 H        -3.270134        -2.096191        -0.608760
 H        -3.043901         0.192552        -2.290703
 H        -4.546712         0.320466        -1.241184
 H        -2.376441         3.491179        -2.270076
