19
Iteration:  2287charge 0 multiplicity 1
 C         0.889954         1.034691         0.069261
 C        -0.303797         0.226761        -0.065935
 C        -1.336866        -0.301980        -0.303831
 C        -2.847776        -0.466348        -0.388350
 C        -3.296648        -1.954929        -0.489548
 C        -3.365085         0.315322        -1.592659
 O        -3.103042         1.673091        -1.265497
 C        -2.557576         2.611842        -1.959199
 O        -1.877326         2.455007        -2.928303
 H         0.918812         1.710872         0.972315
 H         1.776228         0.520351         0.228732
 H         0.876678         1.968911        -0.578399
 H        -3.213479        -0.131671         0.587157
 H        -3.795936        -2.310599         0.443665
 H        -4.007396        -2.024333        -1.293795
 H        -2.508071        -2.663919        -0.449862
 H        -2.904874        -0.165939        -2.498412
 H        -4.408565         0.117950        -1.741792
 H        -2.411801         3.563468        -1.434044
