19
Iteration:  4481charge 0 multiplicity 1
 C         1.411851        -0.407803         1.167884
 C         0.151166        -0.316336         0.373417
 C        -0.907610        -0.254974        -0.167313
 C        -2.313126        -0.161277        -0.453171
 C        -2.989871        -1.340626        -1.038064
 C        -2.311429         1.277377        -1.270754
 O        -3.736484         1.616677        -1.559938
 C        -3.890366         2.405891        -2.566541
 O        -2.977135         2.764924        -3.284523
 H         1.978572        -1.300920         0.710856
 H         2.210313         0.364788         0.801615
 H         1.236743        -0.486101         2.206280
 H        -2.704147         0.016426         0.540686
 H        -3.630927        -0.913509        -1.851096
 H        -2.197169        -2.113367        -1.431165
 H        -3.768343        -1.792062        -0.344036
 H        -2.022946         1.976665        -0.453561
 H        -1.801457         1.120889        -2.176167
 H        -4.922277         2.823526        -2.683201
