19
Iteration:  2521charge 0 multiplicity 1
 C         1.291813         0.197689         0.737075
 C        -0.104698         0.137085         0.154974
 C        -1.157964         0.077651        -0.397652
 C        -2.613635        -0.338339        -0.547492
 C        -2.835354        -1.866412        -0.660170
 C        -3.399055         0.385824        -1.546351
 O        -3.346987         1.827682        -1.243424
 C        -2.974475         2.816925        -2.171357
 O        -2.515463         2.488819        -3.247503
 H         2.052280        -0.387521         0.122298
 H         1.279894         1.331964         0.492010
 H         1.246299         0.098407         1.882471
 H        -3.058259        -0.065973         0.432242
 H        -3.611633        -2.255113         0.016205
 H        -3.161622        -2.259479        -1.604741
 H        -1.965564        -2.391465        -0.242487
 H        -3.193645         0.231887        -2.586177
 H        -4.489621         0.144868        -1.483120
 H        -2.982072         3.801540        -1.643071
