19
Iteration:  2886charge 0 multiplicity 1
 C         1.282921        -0.152852         0.827555
 C        -0.064110        -0.161701         0.587471
 C        -1.215189        -0.020942         0.144091
 C        -2.537390        -0.261641        -0.459227
 C        -2.762387        -1.740932        -0.794521
 C        -2.618968         0.468519        -1.743183
 O        -2.958367         1.902178        -1.474557
 C        -3.202948         2.901717        -2.310599
 O        -3.592844         2.739407        -3.437392
 H         2.021668         0.237651         0.049328
 H         1.571238         0.150722         1.804009
 H         1.686877        -1.192024         0.945751
 H        -3.295855         0.277278         0.139806
 H        -3.682948        -1.917183        -1.384964
 H        -1.951798        -2.294597        -1.321875
 H        -2.866082        -2.316938         0.194713
 H        -1.619933         0.496581        -2.243194
 H        -3.481877         0.234051        -2.378375
 H        -3.379157         3.920705        -1.869983
