19
Iteration:  2563
 C         1.261406         0.488402         0.592036
 C        -0.075141         0.048446         0.061368
 C        -1.232257        -0.249547        -0.150804
 C        -2.620475        -0.429174        -0.444587
 C        -3.042174        -1.895025        -0.680161
 C        -3.078361         0.419567        -1.627648
 O        -3.306580         1.888868        -1.256677
 C        -2.918192         2.792552        -2.095015
 O        -2.685267         2.569021        -3.252590
 H         2.043431        -0.305535         0.678325
 H         1.947105         1.160961         0.184187
 H         0.984122         0.742443         1.673689
 H        -3.190470        -0.071998         0.419237
 H        -4.102528        -2.020476        -0.942808
 H        -2.496218        -2.244702        -1.578519
 H        -2.940494        -2.461005         0.282007
 H        -2.439584         0.282764        -2.470006
 H        -4.064673        -0.031266        -1.927703
 H        -2.621359         3.756302        -1.668369
