19
Iteration:   824charge 0 multiplicity 1
 C         1.473134        -0.130294         0.612199
 C         0.023204        -0.103081         0.439486
 C        -1.045759        -0.073381        -0.176026
 C        -2.501956        -0.020428        -0.390904
 C        -3.256724        -1.338225        -0.180338
 C        -2.561243         0.477492        -1.853577
 O        -2.165345         1.899247        -2.025205
 C        -3.203339         2.636802        -2.589473
 O        -4.363296         2.337663        -2.574887
 H         1.679956         0.877932         0.625453
 H         1.852828        -0.628214         1.506229
 H         1.999206        -0.702944        -0.273976
 H        -2.983940         0.743445         0.298434
 H        -3.619029        -1.504331         0.822496
 H        -4.079155        -1.408714        -0.889899
 H        -2.679525        -2.157966        -0.538549
 H        -1.714939         0.022953        -2.415641
 H        -3.514802         0.305051        -2.390532
 H        -2.837585         3.506988        -3.109118
