19
Iteration:   434
 C         1.448672         0.063312        -0.049851
 C         0.000508         0.175824        -0.131684
 C        -1.227128        -0.073781        -0.162459
 C        -2.669465        -0.167219         0.061745
 C        -3.109928        -1.627798         0.010895
 C        -3.387147         0.717019        -1.278778
 O        -2.876782         2.060646        -1.240449
 C        -2.857581         2.605946        -2.489656
 O        -3.030325         1.988547        -3.543615
 H         1.810265         0.987675         0.444795
 H         1.834336        -0.540016         0.791823
 H         1.883461         0.046881        -1.135220
 H        -2.838548         0.325868         1.084322
 H        -2.717544        -2.287313         0.796516
 H        -4.231068        -1.708405         0.142055
 H        -2.847856        -2.103537        -0.948003
 H        -2.919535         0.184780        -2.104356
 H        -4.479818         0.562622        -1.391438
 H        -2.565103         3.652815        -2.303167
