19
Iteration:  3896charge 0 multiplicity 1
 C         1.374600        -0.608723         0.398974
 C         0.005053        -0.387045         0.584811
 C        -1.179447        -0.260236         0.443152
 C        -2.336439         0.140561        -0.267435
 C        -2.816333        -0.915719        -1.266986
 C        -2.225040         1.548813        -0.930440
 O        -3.581975         1.983157        -1.353863
 C        -3.884580         2.090496        -2.669057
 O        -3.011467         2.021672        -3.484266
 H         1.702769        -0.270368        -0.672386
 H         2.079253        -0.300066         1.102512
 H         1.648433        -1.648337         0.420913
 H        -3.149092         0.159525         0.428953
 H        -3.304297        -0.347583        -2.057695
 H        -1.917407        -1.572535        -1.593931
 H        -3.690526        -1.456000        -0.794143
 H        -1.938385         2.386747        -0.150419
 H        -1.476484         1.536596        -1.722522
 H        -4.947731         2.352348        -2.691531
