19
Iteration:  1328
 C         0.973476         0.701789         0.715212
 C        -0.307613         0.334198         0.264011
 C        -1.423780        -0.029594        -0.157954
 C        -2.693346        -0.334536        -0.805145
 C        -3.163880        -1.828628        -0.632059
 C        -2.822007         0.117150        -2.232977
 O        -2.134526         1.503240        -2.634749
 C        -2.596442         2.554607        -2.036175
 O        -3.607763         2.671543        -1.365583
 H         1.697146        -0.164941         0.612498
 H         1.555533         1.567396         0.290236
 H         1.073905         0.814519         1.755773
 H        -3.377241         0.279815        -0.245510
 H        -4.224389        -1.912798        -0.499837
 H        -2.757926        -2.430753        -1.402364
 H        -2.729682        -2.012911         0.351773
 H        -2.375473        -0.506309        -3.012546
 H        -3.895136         0.254654        -2.422840
 H        -1.895513         3.364027        -2.417678
