19
Iteration:  1712
 C         1.454963        -0.087372         0.902114
 C         0.088281        -0.141665         0.344418
 C        -1.093344        -0.109896         0.113549
 C        -2.415979        -0.153540        -0.385301
 C        -2.951749        -1.586297        -0.423844
 C        -2.654050         0.543002        -1.802690
 O        -2.511204         1.971522        -1.690797
 C        -3.393500         2.710290        -2.408554
 O        -4.105953         2.492150        -3.356255
 H         1.876782        -0.934921         0.402925
 H         1.902054         0.905092         0.749287
 H         1.419384        -0.502997         1.911845
 H        -3.007526         0.564851         0.244458
 H        -3.756068        -1.534904        -1.155143
 H        -2.091356        -2.042665        -0.981885
 H        -3.226269        -2.013279         0.527349
 H        -1.972864         0.177247        -2.568676
 H        -3.695367         0.270369        -2.025113
 H        -3.219356         3.835247        -2.075150
