19
Iteration:  3859
 C         1.522112        -0.851063         0.505276
 C         0.099682        -0.423468         0.447932
 C        -1.044851        -0.003696         0.319682
 C        -2.452865         0.160489        -0.165491
 C        -2.721840        -0.986400        -1.111402
 C        -2.459754         1.521918        -0.815329
 O        -3.670700         1.970442        -1.459188
 C        -3.872184         2.172624        -2.741982
 O        -3.019874         2.125277        -3.561067
 H         2.148014        -0.234296        -0.083961
 H         1.886234        -0.771405         1.562840
 H         1.415264        -1.900759         0.075378
 H        -3.187004         0.141024         0.706817
 H        -3.701716        -0.823990        -1.649100
 H        -1.976607        -1.158846        -1.866394
 H        -2.783189        -1.952882        -0.648921
 H        -2.242163         2.245840        -0.129895
 H        -1.680936         1.509388        -1.575769
 H        -4.908255         2.554951        -2.966080
