19
Iteration:  2512charge 0 multiplicity 1
 C         1.168893         0.146727         0.710396
 C        -0.080433         0.162962         0.158520
 C        -1.200297         0.103970        -0.376811
 C        -2.561783        -0.382275        -0.527626
 C        -2.749862        -1.914255        -0.660497
 C        -3.472077         0.475687        -1.561107
 O        -3.406168         1.897929        -1.262358
 C        -2.937442         2.751467        -2.163245
 O        -2.491861         2.474327        -3.230542
 H         2.034675        -0.171498         0.079753
 H         1.788559         1.185665         0.683465
 H         1.397987        -0.177898         1.733033
 H        -2.934364        -0.003707         0.464986
 H        -3.423588        -2.192363         0.192086
 H        -3.149062        -2.261417        -1.595836
 H        -1.781777        -2.390511        -0.386777
 H        -3.131822         0.177931        -2.575638
 H        -4.508308         0.152809        -1.330446
 H        -3.139220         3.833238        -1.974010
