19
Iteration:  1120charge 0 multiplicity 1
 C         1.070832         0.703529         0.683073
 C        -0.231125         0.238441         0.252687
 C        -1.337158         0.080920        -0.298733
 C        -2.688435        -0.191832        -0.832356
 C        -3.276457        -1.656979        -0.448413
 C        -2.858046         0.142417        -2.354447
 O        -2.115335         1.410145        -2.577340
 C        -2.643578         2.481163        -2.064464
 O        -3.615034         2.498789        -1.318185
 H         0.952956         1.398645         1.530150
 H         1.496434        -0.235947         1.124129
 H         1.718701         1.109033        -0.014575
 H        -3.298079         0.598392        -0.337246
 H        -3.448555        -1.699926         0.641866
 H        -4.326466        -1.811456        -0.800555
 H        -2.583271        -2.508556        -0.747838
 H        -2.313892        -0.514056        -3.086261
 H        -3.952134         0.271036        -2.622430
 H        -2.193330         3.497093        -2.225477
