19
Iteration:  1494charge 0 multiplicity 1
 C         1.198912         0.060700         1.114454
 C         0.016177         0.023067         0.305356
 C        -1.158573         0.185698        -0.095223
 C        -2.505570         0.005297        -0.626054
 C        -3.046710        -1.601303        -0.560315
 C        -2.559349         0.376898        -2.179629
 O        -2.213527         1.627509        -2.656891
 C        -3.117716         2.620682        -2.330434
 O        -4.208672         2.470546        -1.869043
 H         0.817509         0.648153         1.940667
 H         1.423791        -0.935026         1.547909
 H         2.170927         0.510841         0.805963
 H        -3.235748         0.536247        -0.057187
 H        -3.465003        -1.988916        -1.486021
 H        -2.140360        -2.045756        -0.188444
 H        -3.768673        -1.587533         0.213473
 H        -1.877292        -0.357995        -2.619269
 H        -3.602538         0.166865        -2.524490
 H        -2.715847         3.664180        -2.395866
