19
Iteration:   937
 C         1.309953        -0.015082         0.814126
 C        -0.007801         0.092075         0.313455
 C        -1.080229         0.000442        -0.240411
 C        -2.522263        -0.115833        -0.597215
 C        -3.178292        -1.468667        -0.138865
 C        -2.720545         0.351953        -2.204519
 O        -2.098863         1.753374        -2.368966
 C        -3.075682         2.636811        -2.400546
 O        -4.227515         2.439828        -2.083321
 H         2.075891        -0.540318         0.303206
 H         1.643506         1.044212         1.063916
 H         1.285650        -0.525861         1.873733
 H        -3.112534         0.780996        -0.260338
 H        -3.232092        -1.379746         0.948513
 H        -4.197312        -1.472847        -0.554941
 H        -2.636651        -2.292144        -0.646966
 H        -2.127445        -0.358389        -2.792225
 H        -3.795433         0.482121        -2.410244
 H        -2.602033         3.618924        -2.478269
