19
Iteration:  4978charge 0 multiplicity 1
 C         1.230909         0.158033         0.989364
 C        -0.088728        -0.110220         0.513827
 C        -1.084073        -0.440511        -0.183039
 C        -2.420026        -0.057752        -0.720519
 C        -3.300715        -1.224767        -0.748108
 C        -2.177996         0.530773        -2.085548
 O        -3.269666         1.139749        -2.631366
 C        -3.647179         2.431501        -2.309965
 O        -2.918398         3.135138        -1.685509
 H         2.092928        -0.547924         0.766410
 H         1.576452         1.146095         0.742065
 H         1.192487         0.073551         2.138738
 H        -2.898569         0.748234         0.032586
 H        -4.402117        -0.971940        -0.771567
 H        -3.091049        -1.785197        -1.760284
 H        -3.000245        -1.933552         0.067252
 H        -1.338109         1.313538        -1.835036
 H        -1.762955        -0.268674        -2.738489
 H        -4.725261         2.605611        -2.672142
