19
Iteration:  3002
 C         1.464765        -0.211330         1.106297
 C         0.127047        -0.242102         0.499254
 C        -1.021546        -0.262785        -0.051121
 C        -2.453019        -0.169919        -0.542962
 C        -2.980109        -1.601176        -0.999217
 C        -2.694948         0.759637        -1.657301
 O        -3.149408         2.090367        -1.246742
 C        -3.476939         2.804151        -2.350367
 O        -3.424587         2.424341        -3.509589
 H         2.080000        -1.074315         0.745977
 H         2.018291         0.735713         0.698356
 H         1.583497        -0.222548         2.242708
 H        -3.080976         0.076453         0.390222
 H        -4.074311        -1.572008        -0.885695
 H        -2.806234        -1.718014        -2.047394
 H        -2.455146        -2.298027        -0.373710
 H        -1.749974         0.850186        -2.263789
 H        -3.595997         0.454667        -2.104886
 H        -3.548263         3.850140        -1.993438
