19
Iteration:  2981charge 0 multiplicity 1
 C         1.381921        -0.276056         0.945083
 C         0.068364        -0.121912         0.444628
 C        -1.079974        -0.186042         0.152238
 C        -2.386735        -0.171669        -0.488888
 C        -2.963190        -1.553257        -0.946452
 C        -2.588965         0.701367        -1.775168
 O        -3.175291         1.977366        -1.295786
 C        -3.387555         2.816710        -2.307112
 O        -3.478838         2.449339        -3.453534
 H         2.138654        -0.980195         0.605115
 H         1.889068         0.696851         1.082141
 H         1.373251        -0.501575         2.057547
 H        -2.974836         0.000575         0.420553
 H        -4.070552        -1.408299        -1.113136
 H        -2.582488        -1.717329        -1.956253
 H        -2.725494        -2.398275        -0.277482
 H        -1.594801         1.031896        -2.225963
 H        -3.263018         0.313560        -2.487153
 H        -3.483667         3.861118        -2.043588
