19
Iteration:   807charge 0 multiplicity 1
 C         1.482365        -0.110170         0.629616
 C         0.076003        -0.280535         0.242665
 C        -1.130565        -0.016713         0.066275
 C        -2.499301         0.076450        -0.420054
 C        -3.169198        -1.367998        -0.167059
 C        -2.552544         0.463986        -1.891912
 O        -2.247042         1.875526        -2.021453
 C        -3.215985         2.661409        -2.556470
 O        -4.365083         2.370237        -2.676569
 H         1.949411         0.891065         1.027614
 H         1.771746        -0.892217         1.375727
 H         2.064108        -0.340892        -0.204792
 H        -3.035573         0.846336         0.109405
 H        -3.507537        -1.351965         0.903904
 H        -4.094929        -1.601466        -0.764631
 H        -2.432184        -2.226040        -0.177062
 H        -1.846867        -0.114821        -2.490461
 H        -3.567957         0.351270        -2.309060
 H        -2.628220         3.619975        -2.778078
