19
Iteration:  1211
 C         0.970814         0.950534         0.439361
 C        -0.312890         0.312311         0.205627
 C        -1.462919        -0.080966        -0.133326
 C        -2.794442        -0.414705        -0.715957
 C        -3.299149        -1.817892        -0.780312
 C        -2.854693         0.104912        -2.156839
 O        -2.021592         1.325384        -2.336906
 C        -2.500108         2.507733        -1.990425
 O        -3.513067         2.770585        -1.383157
 H         0.997413         1.653305        -0.309450
 H         0.940509         1.476451         1.367161
 H         1.930910         0.365467         0.357132
 H        -3.548983         0.208492        -0.157604
 H        -2.421558        -2.448227        -0.575849
 H        -3.834067        -2.026681         0.129549
 H        -3.802942        -2.117062        -1.699809
 H        -2.333511        -0.612886        -2.821496
 H        -3.913675         0.261569        -2.490002
 H        -1.619553         3.183934        -2.298246
