19
Iteration:  1517
 C         1.221303        -0.006311         1.094770
 C        -0.012954         0.156304         0.378164
 C        -1.103754         0.019457        -0.086434
 C        -2.496354        -0.051130        -0.669580
 C        -3.039459        -1.436754        -0.555787
 C        -2.500026         0.275387        -2.142288
 O        -2.210104         1.674227        -2.448502
 C        -3.166718         2.638020        -2.324852
 O        -4.293938         2.475622        -2.055646
 H         1.378817         0.819801         1.734113
 H         1.306376        -0.977186         1.584431
 H         2.023175         0.042215         0.273299
 H        -3.252013         0.589137        -0.234059
 H        -3.944172        -1.530612        -1.139576
 H        -2.148615        -2.003917        -0.875791
 H        -3.288520        -1.675649         0.461536
 H        -1.766428        -0.383777        -2.641284
 H        -3.533511         0.115783        -2.567681
 H        -2.761352         3.699539        -2.488587
