19
Iteration:  2139
 C         1.029695         0.820008        -0.079461
 C        -0.386992         0.426305        -0.216901
 C        -1.564726         0.243340        -0.217155
 C        -2.851661        -0.386548        -0.332818
 C        -2.765432        -1.888714        -0.829361
 C        -3.748312         0.439142        -1.415794
 O        -3.464257         1.878185        -1.243069
 C        -2.453346         2.438871        -1.896320
 O        -1.693115         1.821716        -2.599905
 H         1.723770         0.012436        -0.388162
 H         1.352198         1.734436        -0.684853
 H         1.147013         1.288415         0.856895
 H        -3.325077        -0.325027         0.632207
 H        -2.651406        -1.910781        -1.936950
 H        -1.832309        -2.410770        -0.462300
 H        -3.606201        -2.450391        -0.336989
 H        -3.346313         0.050810        -2.392946
 H        -4.834797         0.378623        -1.398171
 H        -2.413424         3.542341        -2.152994
