19
Iteration:  4898charge 0 multiplicity 1
 C         1.183216         0.058834         1.208440
 C        -0.044228        -0.108755         0.482932
 C        -1.010882        -0.280230        -0.271925
 C        -2.290787         0.060327        -0.894020
 C        -3.276365        -1.037255        -0.573522
 C        -2.164229         0.484244        -2.325724
 O        -3.439156         1.141017        -2.785336
 C        -3.636965         2.337335        -2.229104
 O        -2.928435         2.930258        -1.500313
 H         1.863055         0.152619         0.407886
 H         1.235740         0.952326         1.920149
 H         1.447000        -0.785131         1.845144
 H        -2.700141         0.981820        -0.330939
 H        -4.249739        -0.888148        -1.056427
 H        -2.756515        -1.997341        -0.922733
 H        -3.424828        -1.065034         0.529620
 H        -1.366074         1.124386        -2.473948
 H        -2.058567        -0.432235        -2.897561
 H        -4.446717         2.858240        -2.845053
