19
Iteration:   438charge 0 multiplicity 1
 C         1.461805         0.077021        -0.024319
 C         0.000230         0.163019        -0.152555
 C        -1.216864        -0.036772        -0.141553
 C        -2.675075        -0.187135         0.048938
 C        -3.148426        -1.647690         0.022587
 C        -3.348650         0.695640        -1.265922
 O        -2.865874         2.068551        -1.251349
 C        -2.887099         2.624895        -2.512673
 O        -3.046515         2.000452        -3.525831
 H         1.834381         1.058522         0.236630
 H         1.773773        -0.682381         0.762625
 H         2.076616        -0.056827        -1.038442
 H        -2.874887         0.283148         0.960987
 H        -2.845363        -2.343593         0.837069
 H        -4.239356        -1.678838         0.044940
 H        -2.730388        -2.088003        -0.912533
 H        -2.843193         0.182354        -2.073257
 H        -4.448011         0.552371        -1.331249
 H        -2.548012         3.631729        -2.389014
