19
Iteration:  1566charge 0 multiplicity 1
 C         1.327787        -0.005908         0.889962
 C        -0.101077        -0.057188         0.507589
 C        -1.165794         0.006345        -0.089669
 C        -2.462869        -0.012252        -0.625594
 C        -3.093960        -1.573119        -0.444759
 C        -2.454106         0.458604        -2.090874
 O        -2.153138         1.890058        -2.187532
 C        -3.176067         2.660567        -2.308709
 O        -4.341532         2.312394        -2.446659
 H         1.707876         1.076642         0.917898
 H         1.311590        -0.377018         1.939042
 H         1.917198        -0.632590         0.283408
 H        -3.179044         0.719606        -0.108222
 H        -3.743494        -1.401225         0.424913
 H        -3.511692        -1.867022        -1.407295
 H        -2.306994        -2.275349        -0.082163
 H        -1.632388        -0.067110        -2.582317
 H        -3.383834         0.288838        -2.590204
 H        -2.979094         3.800797        -2.339809
