19
Iteration:   465charge 0 multiplicity 1
 C         1.450128         0.081063         0.017424
 C         0.047775         0.021843        -0.183619
 C        -1.158479         0.007175         0.079156
 C        -2.554153        -0.126046        -0.060189
 C        -3.204004        -1.522837        -0.065643
 C        -3.215507         0.614315        -1.324431
 O        -2.865993         1.979643        -1.243170
 C        -2.922768         2.559122        -2.474204
 O        -3.198582         2.087986        -3.556047
 H         1.689018         1.179666        -0.222037
 H         1.777347        -0.368381         0.951136
 H         2.082540        -0.386095        -0.651371
 H        -2.982179         0.431422         0.862777
 H        -3.359553        -1.819161         0.970034
 H        -4.248212        -1.464735        -0.448611
 H        -2.601688        -2.319605        -0.474519
 H        -2.835720         0.119202        -2.230894
 H        -4.288265         0.448407        -1.200775
 H        -2.725339         3.707124        -2.274907
