19
Iteration:  2992
 C         1.465213        -0.201451         1.059869
 C         0.079552        -0.210107         0.455574
 C        -1.042361        -0.235192         0.066042
 C        -2.394319        -0.216363        -0.514127
 C        -2.966482        -1.518996        -0.995157
 C        -2.658864         0.759429        -1.691390
 O        -3.189049         2.012463        -1.219680
 C        -3.357117         2.836050        -2.356085
 O        -3.473991         2.419799        -3.499647
 H         1.866842        -1.078169         0.518187
 H         2.095250         0.704849         0.830546
 H         1.291033        -0.459355         2.139016
 H        -3.116549         0.346583         0.106328
 H        -4.075900        -1.518619        -0.842285
 H        -2.703142        -1.790336        -2.015559
 H        -2.645906        -2.414264        -0.418662
 H        -1.801684         0.937033        -2.414479
 H        -3.334204         0.239159        -2.323861
 H        -3.702389         3.792836        -1.998259
