19
Iteration:  4950
 C         1.196420         0.201905         1.183657
 C         0.147422        -0.177456         0.238401
 C        -1.038507        -0.296523        -0.101429
 C        -2.347348        -0.116079        -0.773872
 C        -3.535519        -1.170921        -0.740507
 C        -2.103228         0.563577        -2.233843
 O        -3.371443         1.036560        -2.618906
 C        -3.613341         2.420818        -2.319140
 O        -2.882536         3.053132        -1.571644
 H         2.220278        -0.080514         0.913721
 H         1.206727         1.366724         1.223577
 H         0.967358        -0.106216         2.198224
 H        -2.860483         0.647488        -0.260518
 H        -4.421644        -0.514943        -0.675765
 H        -3.586467        -1.658913        -1.640906
 H        -3.375322        -1.866487         0.046455
 H        -1.497801         1.415700        -1.958438
 H        -1.669752        -0.205549        -2.862908
 H        -4.601270         2.674521        -2.603187
