19
Iteration:  2797
 C         1.099922         0.202765         1.116384
 C         0.035293        -0.140957         0.226000
 C        -1.089480        -0.212667        -0.305767
 C        -2.486914        -0.352443        -0.513021
 C        -2.895498        -1.754830        -0.941324
 C        -3.237558         0.628394        -1.473106
 O        -2.657351         1.975045        -1.318570
 C        -2.895953         2.833139        -2.312246
 O        -3.453038         2.441121        -3.315456
 H         1.107924         1.308767         1.105645
 H         1.009551        -0.372348         2.006770
 H         2.060685         0.061027         0.497309
 H        -2.979177        -0.259444         0.471380
 H        -4.027746        -1.850873        -1.003756
 H        -2.572700        -1.851052        -2.002674
 H        -2.554508        -2.585509        -0.330458
 H        -3.225910         0.375342        -2.588047
 H        -4.259238         0.532758        -1.165136
 H        -2.358251         3.775326        -2.049550
