19
Iteration:  4894charge 0 multiplicity 1
 C         1.187602         0.026450         1.227261
 C        -0.075425        -0.115607         0.481791
 C        -0.998178        -0.226730        -0.240082
 C        -2.295332         0.047311        -0.894965
 C        -3.245945        -1.059629        -0.559502
 C        -2.143369         0.492514        -2.339197
 O        -3.435897         1.122452        -2.795686
 C        -3.678338         2.378859        -2.238369
 O        -2.923739         2.929510        -1.490584
 H         1.849306         0.193312         0.292356
 H         1.228913         0.928544         1.864891
 H         1.550729        -0.854121         1.763166
 H        -2.752048         0.904426        -0.453968
 H        -4.312711        -0.991305        -0.958080
 H        -2.877629        -2.022548        -0.739270
 H        -3.477379        -0.937314         0.494418
 H        -1.282517         1.171761        -2.746042
 H        -1.975500        -0.406452        -2.989292
 H        -4.430011         2.880150        -2.817146
