19
Iteration:  4490
 C         1.437254        -0.451025         1.091810
 C         0.173135        -0.347081         0.446731
 C        -0.883923        -0.296957        -0.164688
 C        -2.333757        -0.068041        -0.423279
 C        -2.938753        -1.360847        -1.025672
 C        -2.351800         1.217510        -1.214413
 O        -3.794532         1.616843        -1.583727
 C        -3.938914         2.477419        -2.650040
 O        -2.966257         2.812981        -3.280982
 H         1.887355        -1.529680         0.914190
 H         2.178558         0.364409         0.846714
 H         1.274205        -0.389505         2.153388
 H        -2.781705         0.108201         0.544136
 H        -3.546340        -1.164248        -1.921379
 H        -2.029129        -2.033780        -1.327451
 H        -3.439063        -1.864229        -0.173042
 H        -1.897229         2.073003        -0.652683
 H        -1.689351         1.160924        -2.021524
 H        -4.980625         2.578439        -2.899364
