19
Iteration:  4020
 C         1.419252        -0.483880         0.962497
 C         0.151777        -0.314953         0.260292
 C        -0.993138        -0.381296        -0.106635
 C        -2.315680         0.030594        -0.445162
 C        -3.226344        -0.934348        -1.352402
 C        -2.247129         1.468237        -0.949973
 O        -3.464799         2.207840        -1.148265
 C        -3.748928         2.276362        -2.552542
 O        -3.184132         1.701537        -3.491600
 H         1.988165        -1.398475         0.876269
 H         2.193681         0.306078         0.713301
 H         1.240138        -0.372860         2.016714
 H        -2.759438         0.060959         0.522765
 H        -3.908150        -1.074176        -0.462367
 H        -3.488429        -0.390624        -2.224912
 H        -2.725560        -1.851065        -1.695811
 H        -1.619801         2.088570        -0.315058
 H        -1.648803         1.448085        -2.001022
 H        -4.599857         2.912553        -2.623943
