19
Iteration:   307
 C         1.277999         0.421541        -0.520124
 C        -0.132701         0.072283        -0.356929
 C        -1.315925         0.123107        -0.174664
 C        -2.784699        -0.099313        -0.058578
 C        -3.284378        -1.570587         0.142190
 C        -3.456686         0.614660        -1.183947
 O        -3.185622         1.945646        -1.164965
 C        -2.646213         2.428354        -2.325238
 O        -2.213725         1.809953        -3.231492
 H         2.035421        -0.236678         0.190461
 H         1.507794         0.159843        -1.567253
 H         1.464514         1.470284        -0.431685
 H        -3.123255         0.463276         0.891619
 H        -3.083182        -1.715865         1.195031
 H        -4.255674        -1.869360        -0.223298
 H        -2.614330        -2.263671        -0.375750
 H        -3.354625         0.146405        -2.114539
 H        -4.497947         0.486659        -0.842980
 H        -2.768924         3.604814        -2.283614
