19
Iteration:  3606
 C         1.414006        -0.477927         1.025373
 C         0.140086        -0.380804         0.536641
 C        -1.029972        -0.249022         0.137619
 C        -2.419261        -0.079696        -0.518321
 C        -2.900206        -1.529140        -0.881604
 C        -2.284972         1.069340        -1.641162
 O        -3.244458         2.027252        -1.336624
 C        -3.693742         2.733842        -2.407573
 O        -3.583858         2.484711        -3.587608
 H         1.596895        -1.112477         1.846112
 H         2.266733        -0.707409         0.314848
 H         1.792972         0.534271         1.370592
 H        -3.097044         0.386049         0.211584
 H        -3.998229        -1.685182        -0.962933
 H        -2.588137        -1.851146        -1.922414
 H        -2.406727        -2.299075        -0.200753
 H        -1.292893         1.469782        -1.754212
 H        -2.568405         0.792231        -2.712690
 H        -4.403713         3.478216        -2.052648
