19
Iteration:  4648charge 0 multiplicity 1
 C         1.474080        -0.835688         0.987858
 C         0.177003        -0.541346         0.460677
 C        -0.913319        -0.009024         0.165209
 C        -2.269353         0.132889        -0.287051
 C        -2.878420        -1.247875        -0.580915
 C        -2.342375         1.340859        -1.372303
 O        -3.479291         1.116388        -2.332306
 C        -3.816813         2.282280        -2.989544
 O        -3.481703         3.411736        -2.779306
 H         1.445681        -0.991221         2.036779
 H         1.766304        -1.882930         0.681544
 H         2.258701         0.002457         0.773998
 H        -2.674315         0.482694         0.623002
 H        -3.758517        -1.156852        -1.288557
 H        -2.295743        -1.970230        -1.064165
 H        -3.189256        -1.802130         0.295706
 H        -2.559184         2.262247        -0.897206
 H        -1.398646         1.427397        -2.005054
 H        -4.628706         1.954277        -3.628529
