19
Iteration:  1620
 C         1.452832        -0.047038         0.871848
 C         0.005680        -0.038003         0.401223
 C        -1.169087        -0.015746         0.090995
 C        -2.491820        -0.146125        -0.485028
 C        -3.226448        -1.472586        -0.584297
 C        -2.389901         0.496124        -1.913753
 O        -2.207655         1.942508        -1.900452
 C        -3.268682         2.651102        -2.395152
 O        -4.348589         2.280766        -2.802857
 H         2.063975         0.512388         0.098908
 H         1.657485         0.455468         1.833039
 H         1.960670        -0.998779         0.854685
 H        -3.158894         0.581350         0.093078
 H        -2.587176        -2.290621        -0.202273
 H        -4.136328        -1.458630         0.005404
 H        -3.243286        -1.563684        -1.686748
 H        -1.473521         0.059784        -2.347153
 H        -3.260044         0.359981        -2.537175
 H        -3.106028         3.865476        -2.321645
