19
Iteration:  3184charge 0 multiplicity 1
 C         1.150203         0.331489         0.702779
 C        -0.242556        -0.087990         0.478347
 C        -1.404314        -0.299330         0.186522
 C        -2.699259        -0.404388        -0.542490
 C        -2.898834        -1.834157        -0.979179
 C        -2.724006         0.464034        -1.744528
 O        -2.383160         1.891167        -1.362738
 C        -2.840975         2.755756        -2.278202
 O        -3.717787         2.728883        -3.134377
 H         1.381371         0.688844         1.719613
 H         1.985721        -0.379479         0.562199
 H         1.160471         1.253677         0.099431
 H        -3.445493        -0.019042         0.168810
 H        -3.839905        -2.161945        -1.503571
 H        -2.030867        -2.156413        -1.648367
 H        -2.737066        -2.502956        -0.110702
 H        -2.028320         0.291271        -2.555277
 H        -3.780975         0.487474        -2.171514
 H        -2.355439         3.708762        -2.106088
