19
Iteration:  2902charge 0 multiplicity 1
 C         1.341132        -0.222116         0.826132
 C        -0.116853        -0.254265         0.587499
 C        -1.245081        -0.048119         0.194338
 C        -2.531464        -0.223490        -0.480447
 C        -2.740582        -1.761438        -0.690595
 C        -2.576108         0.582331        -1.844537
 O        -2.879857         1.905435        -1.416109
 C        -3.423766         2.843766        -2.310431
 O        -3.543916         2.798514        -3.519280
 H         1.725050         0.257140        -0.066680
 H         1.644026         0.630347         1.537247
 H         1.797520        -1.201512         0.998878
 H        -3.357311         0.012287         0.193691
 H        -3.460077        -1.781419        -1.505116
 H        -1.774831        -2.157914        -0.939728
 H        -3.057587        -2.201587         0.208570
 H        -1.620929         0.637216        -2.371317
 H        -3.357915         0.053450        -2.427491
 H        -3.477542         3.734624        -1.682696
