19
Iteration:  1048
 C         1.173909         0.256894         0.812787
 C        -0.157516         0.228653         0.384541
 C        -1.215411         0.147609        -0.222558
 C        -2.590452        -0.119802        -0.753453
 C        -3.043854        -1.615471        -0.388829
 C        -2.784410         0.130401        -2.285656
 O        -2.231523         1.400361        -2.637658
 C        -3.010798         2.625695        -2.377863
 O        -3.796932         2.712356        -1.442522
 H         1.067609        -0.299444         1.794780
 H         1.898378        -0.269640         0.178374
 H         1.495594         1.401228         1.163113
 H        -3.154115         0.660792        -0.220020
 H        -3.905835        -1.635855         0.267483
 H        -3.458066        -2.176224        -1.239549
 H        -2.241976        -2.210114         0.076406
 H        -2.343008        -0.566362        -2.990814
 H        -3.841672         0.162051        -2.504194
 H        -2.729987         3.515199        -2.892765
