19
Iteration:  4471charge 0 multiplicity 1
 C         1.397505        -0.380423         1.150035
 C         0.209226        -0.271240         0.348501
 C        -0.914913        -0.250697        -0.136725
 C        -2.288870        -0.120678        -0.480415
 C        -3.097519        -1.324160        -1.119472
 C        -2.347531         1.215572        -1.265232
 O        -3.670948         1.563712        -1.461669
 C        -3.831432         2.400846        -2.529543
 O        -2.984845         2.732858        -3.329292
 H         2.000835        -1.253290         0.884075
 H         1.946615         0.622467         1.130254
 H         1.263104        -0.521819         2.211015
 H        -2.848930         0.128398         0.439302
 H        -3.678660        -0.948398        -1.992808
 H        -2.574946        -2.197834        -1.570600
 H        -3.848065        -1.807717        -0.440318
 H        -1.845680         2.040030        -0.670733
 H        -1.810901         1.336384        -2.205806
 H        -4.855126         2.849866        -2.380257
