19
Iteration:  2074charge 0 multiplicity 1
 C         1.189846         0.817459         0.079980
 C        -0.187139         0.399081        -0.035036
 C        -1.335584         0.004596        -0.194456
 C        -2.675707        -0.378867        -0.382244
 C        -3.016242        -1.904195        -0.709700
 C        -3.607730         0.406888        -1.403579
 O        -3.591882         1.909874        -1.273210
 C        -2.573396         2.445701        -1.993536
 O        -1.945608         2.026308        -2.926839
 H         1.892472         0.900968        -0.762167
 H         1.183747         1.892007         0.363830
 H         1.605745         0.132168         0.851337
 H        -3.054428        -0.237915         0.637011
 H        -2.197874        -2.619305        -0.964854
 H        -3.523638        -2.432487         0.140291
 H        -3.748748        -1.871863        -1.556061
 H        -3.120278         0.305036        -2.404367
 H        -4.616718         0.054034        -1.481312
 H        -2.546076         3.632441        -1.581541
