19
Iteration:   246
 C         1.112706         0.476825        -0.814402
 C        -0.189388         0.278218        -0.369164
 C        -1.351650         0.134343        -0.038610
 C        -2.803608        -0.133684         0.038441
 C        -3.280796        -1.572718         0.252378
 C        -3.584753         0.424730        -1.216352
 O        -3.368331         1.895460        -1.284840
 C        -2.394680         2.413089        -2.193026
 O        -1.869560         1.850449        -3.130015
 H         1.538381        -0.418001        -1.267630
 H         1.026158         0.931423        -1.881170
 H         1.765599         1.144969        -0.148541
 H        -3.208061         0.463563         0.839331
 H        -2.651382        -2.195261         0.959596
 H        -4.333599        -1.550939         0.688247
 H        -3.313617        -2.156337        -0.707523
 H        -3.287411        -0.008826        -2.244841
 H        -4.686810         0.352805        -1.144666
 H        -2.320076         3.469608        -1.989959
