19
Iteration:  3299
 C         1.008044         0.500810         0.913101
 C        -0.209270        -0.013827         0.356598
 C        -1.250368        -0.486839        -0.148384
 C        -2.576476        -0.475997        -0.641693
 C        -3.051732        -1.974867        -0.626996
 C        -2.620379         0.357228        -2.008922
 O        -2.410871         1.821648        -1.521477
 C        -2.865092         2.876055        -2.171827
 O        -3.724068         2.933809        -3.002771
 H         1.142708         1.602552         1.106421
 H         1.043582        -0.058125         2.003213
 H         1.961513         0.092474         0.465936
 H        -3.320990        -0.085652         0.105877
 H        -4.127118        -1.805818        -0.634148
 H        -2.657052        -2.461673        -1.529534
 H        -2.584940        -2.487350         0.189107
 H        -1.843216        -0.000102        -2.761760
 H        -3.582245         0.189082        -2.585540
 H        -2.308882         3.777667        -1.670578
