19
Iteration:  1647charge 0 multiplicity 1
 C         1.402244        -0.041910         0.812690
 C        -0.006989         0.031128         0.513565
 C        -1.114238        -0.226770         0.056436
 C        -2.437317        -0.155655        -0.520262
 C        -3.177471        -1.494838        -0.528785
 C        -2.488606         0.600481        -1.885375
 O        -2.313700         2.021526        -1.799573
 C        -3.288232         2.755411        -2.432132
 O        -4.234086         2.214163        -2.926407
 H         1.935120         0.007863        -0.124098
 H         1.963761         0.591282         1.516530
 H         1.669370        -1.075275         1.243962
 H        -2.950757         0.470005         0.192680
 H        -2.461631        -2.296942        -0.872808
 H        -3.258999        -1.776011         0.553590
 H        -4.013648        -1.562684        -1.214688
 H        -1.604200         0.264745        -2.459956
 H        -3.397707         0.442836        -2.507896
 H        -3.022471         3.781798        -2.538393
