19
Iteration:  2645
 C         1.062283         0.532914         0.188927
 C        -0.328657         0.087188         0.340618
 C        -1.533427        -0.197899         0.317200
 C        -2.772600        -0.488559        -0.402836
 C        -2.984495        -1.996279        -0.798934
 C        -2.694805         0.354091        -1.684582
 O        -2.782592         1.768817        -1.205494
 C        -2.802070         2.837059        -2.073773
 O        -2.956149         2.734499        -3.282579
 H         1.640245         0.084351         1.010785
 H         1.333633         0.124610        -0.840107
 H         1.118930         1.556032         0.039403
 H        -3.544418        -0.113459         0.263591
 H        -3.812841        -2.120375        -1.503291
 H        -2.144594        -2.475079        -1.281539
 H        -3.174340        -2.709547        -0.053689
 H        -1.704999         0.275574        -2.216123
 H        -3.494949         0.268643        -2.376471
 H        -2.961302         3.752224        -1.486707
