19
Iteration:  3340charge 0 multiplicity 1
 C         1.245857         0.305161         1.056505
 C        -0.128187         0.011350         0.490287
 C        -1.238788        -0.108546        -0.037250
 C        -2.608239        -0.459764        -0.558826
 C        -2.915418        -1.915065        -0.870245
 C        -2.920442         0.340264        -1.895978
 O        -2.367640         1.675006        -1.687724
 C        -2.952187         2.824812        -2.183346
 O        -3.769181         2.979544        -3.060597
 H         1.685013         1.195622         0.700318
 H         1.132336         0.173924         2.170090
 H         1.762550        -0.599882         0.885122
 H        -3.229224         0.051362         0.138272
 H        -3.991159        -1.953546        -1.248373
 H        -2.282188        -2.412359        -1.624549
 H        -3.083649        -2.650999        -0.031392
 H        -2.389358        -0.074844        -2.838466
 H        -3.981493         0.438670        -2.136035
 H        -2.440001         3.627143        -1.692831
