19
Iteration:   850
 C         1.509722        -0.090081         0.674336
 C         0.102847         0.052114         0.390868
 C        -1.083593        -0.206987         0.091484
 C        -2.440074        -0.022901        -0.490413
 C        -3.299625        -1.272863        -0.305054
 C        -2.604993         0.446059        -1.934157
 O        -2.161077         1.819649        -2.174751
 C        -3.180548         2.622570        -2.427334
 O        -4.370943         2.334208        -2.504094
 H         1.992018         0.756753         0.159162
 H         1.930151        -0.240748         1.692712
 H         1.690154        -0.967678         0.163209
 H        -3.048532         0.720569         0.070698
 H        -3.375128        -1.676056         0.747936
 H        -4.330550        -0.992449        -0.663445
 H        -3.090531        -2.122702        -1.050022
 H        -2.015571        -0.075985        -2.710625
 H        -3.689197         0.399209        -2.222142
 H        -2.816797         3.629943        -2.951255
