19
Iteration:  1660charge 0 multiplicity 1
 C         1.424266        -0.081889         0.811408
 C        -0.004649        -0.015480         0.501654
 C        -1.137814        -0.199406         0.061350
 C        -2.435240        -0.115973        -0.520859
 C        -3.069438        -1.526273        -0.504852
 C        -2.484963         0.561313        -1.880154
 O        -2.344029         2.063880        -1.735654
 C        -3.257986         2.717535        -2.442120
 O        -4.247362         2.250331        -3.022818
 H         1.982389        -0.144728        -0.115088
 H         1.564107         0.877780         1.281828
 H         1.695993        -1.047253         1.434789
 H        -3.107391         0.478351         0.064061
 H        -2.739832        -2.131880        -1.347019
 H        -3.076654        -2.000042         0.537642
 H        -4.153442        -1.195126        -0.509610
 H        -1.688841         0.237939        -2.622519
 H        -3.516583         0.318425        -2.245563
 H        -3.134025         3.733234        -2.296439
