19
Iteration:  3817
 C         1.504200        -1.038373         0.759766
 C         0.252336        -0.338354         0.302047
 C        -0.892720         0.020037         0.044751
 C        -2.340927         0.270099        -0.187664
 C        -2.872467        -0.961211        -1.061390
 C        -2.475703         1.596634        -0.963604
 O        -3.850976         1.787042        -1.460387
 C        -3.914761         2.197662        -2.743320
 O        -2.943595         2.173553        -3.453627
 H         2.364645        -0.304963         0.887951
 H         1.299106        -1.321128         1.772694
 H         1.877753        -1.915543         0.141244
 H        -2.888690         0.344145         0.761866
 H        -3.863264        -1.177822        -0.610055
 H        -3.160660        -0.713436        -2.087286
 H        -2.112529        -1.696066        -0.832088
 H        -2.490592         2.411858        -0.190442
 H        -1.700205         1.800569        -1.689943
 H        -4.965147         2.466297        -2.982387
