19
Iteration:  1894charge 0 multiplicity 1
 C         1.370186         0.279204         0.523222
 C        -0.089539         0.051813         0.175585
 C        -1.310423        -0.090020        -0.014998
 C        -2.727692        -0.295539        -0.274361
 C        -2.956504        -1.830459        -0.509774
 C        -3.014913         0.516644        -1.550458
 O        -2.915155         1.943864        -1.243536
 C        -3.020839         2.685085        -2.309197
 O        -3.087518         2.391777        -3.491251
 H         1.649698         0.828027         1.491562
 H         2.037428        -0.655180         0.500953
 H         1.805770         0.950396        -0.161800
 H        -3.376982        -0.004152         0.516128
 H        -3.322235        -1.867008        -1.590975
 H        -2.010187        -2.332151        -0.764949
 H        -3.661875        -2.382766         0.120985
 H        -2.206310         0.335737        -2.232171
 H        -3.980923         0.441495        -2.115344
 H        -3.112578         3.747400        -2.120265
