19
Iteration:  3788
 C         1.521724        -1.019609         0.875448
 C         0.211216        -0.432482         0.443344
 C        -0.761008         0.012476        -0.172440
 C        -2.217761         0.279499        -0.313791
 C        -3.047884        -0.836744        -1.038896
 C        -2.494836         1.594345        -0.974652
 O        -3.820842         1.731358        -1.357375
 C        -3.879542         2.000365        -2.735953
 O        -2.995661         2.349037        -3.515107
 H         2.112513        -0.183885         1.357850
 H         1.325456        -1.662450         1.728298
 H         1.889234        -1.494285         0.024411
 H        -2.535593         0.280768         0.728674
 H        -3.778178        -0.992657        -0.268580
 H        -3.628297        -0.718454        -1.990040
 H        -2.390144        -1.724827        -1.133203
 H        -2.395821         2.543928        -0.283027
 H        -1.821882         1.778095        -1.809046
 H        -4.926075         1.937281        -3.038419
