19
Iteration:   428charge 0 multiplicity 1
 C         1.422116         0.090399        -0.070784
 C        -0.042669         0.160142        -0.091854
 C        -1.202049        -0.111967        -0.184692
 C        -2.666182        -0.102665         0.047128
 C        -3.077822        -1.601606        -0.006265
 C        -3.404002         0.691790        -1.250077
 O        -2.916219         2.040895        -1.229633
 C        -2.799326         2.561756        -2.470490
 O        -3.002849         1.992909        -3.546942
 H         1.763897         0.987475         0.513939
 H         1.887067        -0.668074         0.603578
 H         1.693152         0.090284        -1.149631
 H        -2.884788         0.310794         1.001624
 H        -2.422098        -2.107934         0.742915
 H        -4.113746        -1.728396         0.265527
 H        -3.022804        -2.081433        -1.003185
 H        -3.055354         0.212985        -2.184911
 H        -4.512978         0.743236        -1.339395
 H        -2.596829         3.671714        -2.344022
