19
Iteration:  3916charge 0 multiplicity 1
 C         1.489915        -0.524700         0.421313
 C         0.001586        -0.392791         0.569805
 C        -1.212244        -0.250696         0.385285
 C        -2.519925         0.195123        -0.276551
 C        -2.968124        -0.906800        -1.397402
 C        -2.158549         1.475664        -0.919504
 O        -3.511786         1.971044        -1.233003
 C        -3.751152         2.079582        -2.562772
 O        -3.042796         1.941606        -3.520512
 H         1.736545        -0.370718        -0.691655
 H         1.963790         0.150349         1.096245
 H         1.895305        -1.535405         0.751420
 H        -3.372425         0.422436         0.428071
 H        -3.128384        -0.296661        -2.264263
 H        -2.008481        -1.376932        -1.701502
 H        -3.845837        -1.449255        -1.067288
 H        -1.692640         2.279141        -0.322666
 H        -1.640013         1.312335        -1.806675
 H        -4.847200         2.367023        -2.627015
