19
Iteration:  4509charge 0 multiplicity 1
 C         1.544702        -0.561301         1.070319
 C         0.182105        -0.423208         0.473385
 C        -0.925045        -0.254507         0.048769
 C        -2.343818        -0.034406        -0.365339
 C        -2.823779        -1.400649        -1.002500
 C        -2.520298         1.275424        -1.290276
 O        -3.863806         1.588022        -1.598016
 C        -3.845056         2.370642        -2.731822
 O        -2.997432         3.001159        -3.330898
 H         1.957466        -1.583349         0.951199
 H         2.229264        -0.022228         0.484812
 H         1.543496        -0.209851         2.129798
 H        -2.862462         0.150590         0.617170
 H        -3.597504        -1.106469        -1.691320
 H        -1.955077        -1.805206        -1.537841
 H        -3.114690        -2.004458        -0.166048
 H        -2.040716         2.133214        -0.795083
 H        -1.936169         1.048221        -2.238695
 H        -4.910438         2.544676        -2.964994
