19
Iteration:   393
 C         1.426533         0.183284        -0.142325
 C         0.048044        -0.027146        -0.070220
 C        -1.187059         0.184876        -0.160963
 C        -2.709373        -0.073088        -0.056309
 C        -3.120176        -1.618780         0.003625
 C        -3.577291         0.635744        -1.191123
 O        -3.078925         1.985556        -1.238867
 C        -2.624775         2.454130        -2.391428
 O        -2.840555         2.000372        -3.532988
 H         1.792071         0.861157         0.527876
 H         2.070809        -0.743078        -0.266246
 H         1.684630         0.787050        -1.159979
 H        -3.018980         0.274754         0.862634
 H        -2.396336        -2.340861         0.455603
 H        -3.951544        -1.598676         0.748512
 H        -3.373658        -2.041350        -0.984809
 H        -3.408563         0.179003        -2.135283
 H        -4.685076         0.762250        -0.961480
 H        -2.279142         3.440577        -2.273258
