19
Iteration:  4154charge 0 multiplicity 1
 C         1.233588        -1.212619         1.111602
 C         0.259506        -0.294270         0.479123
 C        -0.813201         0.104528         0.136417
 C        -2.159210         0.251927        -0.423906
 C        -2.450802        -0.953753        -1.200975
 C        -2.319234         1.564440        -1.164143
 O        -3.698436         1.981655        -1.342797
 C        -4.036846         2.309609        -2.597975
 O        -3.500148         2.058230        -3.670661
 H         0.897147        -1.519667         2.040753
 H         1.490140        -2.114842         0.507250
 H         2.204332        -0.684186         1.060186
 H        -2.888409         0.322948         0.359472
 H        -1.730006        -1.221683        -1.917790
 H        -2.559300        -1.873913        -0.582072
 H        -3.374560        -1.030842        -1.772148
 H        -1.801151         2.374874        -0.516076
 H        -1.837947         1.423922        -2.125163
 H        -5.034816         2.680234        -2.563130
