19
Iteration:    73
 C         1.207051         0.431692        -0.725891
 C        -0.245429         0.363595        -0.466523
 C        -1.409161         0.195852        -0.217380
 C        -2.873790        -0.017154         0.051305
 C        -3.197421        -1.490374         0.235709
 C        -3.594752         0.501045        -1.160178
 O        -3.337565         1.793238        -1.252683
 C        -2.508106         2.321778        -2.257203
 O        -1.860425         1.732982        -3.065087
 H         1.438277         1.482524        -1.151443
 H         1.854344         0.313676         0.180203
 H         1.590590        -0.391739        -1.422336
 H        -3.166667         0.572671         0.954265
 H        -2.462237        -1.897106         0.952634
 H        -4.222516        -1.657852         0.593836
 H        -3.108297        -2.052315        -0.707492
 H        -3.195893        -0.048059        -2.073412
 H        -4.673819         0.352465        -1.204037
 H        -2.615557         3.442343        -2.184079
