19
Iteration:  2335
 C         1.077062         0.870035         0.268822
 C        -0.237365         0.250346        -0.082787
 C        -1.378795        -0.224117        -0.231724
 C        -2.816806        -0.486360        -0.415441
 C        -3.235123        -1.996368        -0.447361
 C        -3.222731         0.389081        -1.708419
 O        -3.339310         1.770344        -1.274354
 C        -2.512960         2.673741        -1.942262
 O        -2.106341         2.389318        -3.028728
 H         1.180546         1.870310         0.628068
 H         1.514281         0.192354         1.061614
 H         1.614060         1.020053        -0.587202
 H        -3.244586         0.034509         0.478568
 H        -2.923147        -2.641543         0.323238
 H        -4.314809        -1.923812        -0.516265
 H        -2.767965        -2.519418        -1.309624
 H        -2.503145         0.271002        -2.519909
 H        -4.133914        -0.058419        -2.184467
 H        -2.565833         3.707956        -1.442475
