19
Iteration:   851
 C         1.513498        -0.095970         0.682652
 C         0.104140         0.053285         0.382791
 C        -1.090163        -0.203570         0.101100
 C        -2.440895        -0.024690        -0.484388
 C        -3.298597        -1.266072        -0.307138
 C        -2.612330         0.440495        -1.944736
 O        -2.158893         1.813709        -2.182539
 C        -3.180417         2.629746        -2.415501
 O        -4.375803         2.334288        -2.503925
 H         2.022019         0.776195         0.128736
 H         1.950701        -0.201671         1.697680
 H         1.727048        -0.956975         0.181308
 H        -3.039698         0.710692         0.054081
 H        -3.376510        -1.722623         0.725944
 H        -4.339017        -0.980132        -0.642220
 H        -3.091699        -2.120438        -1.061999
 H        -2.016960        -0.080234        -2.700839
 H        -3.664160         0.399928        -2.261748
 H        -2.781947         3.635822        -2.943113
