19
Iteration:  4069
 C         1.452546        -0.621851         0.949282
 C         0.087638        -0.559363         0.524811
 C        -1.001050        -0.251557         0.111168
 C        -2.288362         0.156294        -0.436385
 C        -2.963970        -0.796314        -1.331626
 C        -2.120434         1.517210        -1.096775
 O        -3.445741         2.111779        -1.262903
 C        -3.913860         2.037794        -2.541590
 O        -3.392601         1.950317        -3.624243
 H         1.768840        -1.677149         1.272729
 H         2.121935        -0.462048         0.105558
 H         1.747935        -0.135558         1.963057
 H        -2.911662         0.430403         0.492848
 H        -3.010275        -1.738877        -0.839132
 H        -3.974895        -0.282589        -1.546624
 H        -2.384374        -0.681390        -2.274249
 H        -1.545441         2.156998        -0.394814
 H        -1.634422         1.585701        -1.995857
 H        -5.033642         2.236443        -2.375670
