19
Iteration:  1084
 C         1.084059         0.467259         0.816826
 C        -0.146225         0.290932         0.081408
 C        -1.275536         0.074604        -0.205669
 C        -2.619114        -0.026197        -0.626910
 C        -3.200373        -1.593157        -0.513935
 C        -2.753285         0.082573        -2.226133
 O        -2.315637         1.425012        -2.747550
 C        -2.728268         2.537897        -2.110643
 O        -3.739501         2.562529        -1.409976
 H         0.739686         0.426740         1.949366
 H         1.711189        -0.464766         0.730878
 H         1.764409         1.313325         0.647862
 H        -3.290015         0.618819        -0.076130
 H        -3.879224        -1.752113         0.374256
 H        -3.589037        -1.918928        -1.522552
 H        -2.305393        -2.202988        -0.289820
 H        -2.104244        -0.684326        -2.619725
 H        -3.777148        -0.128089        -2.507207
 H        -1.938093         3.216818        -2.374201
