19
Iteration:  3228
 C         1.081169         0.553173         0.765323
 C        -0.224662         0.088106         0.416369
 C        -1.220342        -0.470151        -0.017278
 C        -2.611204        -0.472530        -0.503336
 C        -3.234094        -1.807341        -1.083652
 C        -2.701963         0.461238        -1.690299
 O        -2.193377         1.836863        -1.377399
 C        -2.866222         2.782343        -2.197251
 O        -3.701182         2.575810        -3.068808
 H         1.106167         1.190735         1.671712
 H         1.634266        -0.301369         1.283418
 H         1.771087         1.047980         0.054622
 H        -3.331842        -0.091458         0.207401
 H        -4.075270        -1.435257        -1.733210
 H        -2.458871        -2.401313        -1.636005
 H        -3.587222        -2.411185        -0.214861
 H        -2.146569         0.063197        -2.565899
 H        -3.718506         0.614596        -2.110833
 H        -2.758760         3.730516        -1.720622
