19
Iteration:  4992
 C         1.275673         0.095903         0.989345
 C        -0.088345        -0.151789         0.578912
 C        -1.113176        -0.291703        -0.120884
 C        -2.421056        -0.075284        -0.619090
 C        -3.266054        -1.400756        -0.785823
 C        -2.126410         0.577996        -2.030495
 O        -3.338798         1.172150        -2.711159
 C        -3.604812         2.435116        -2.332489
 O        -2.956378         3.215115        -1.713481
 H         1.767436        -0.815032         0.518467
 H         1.576539         0.922805         0.388582
 H         1.540717         0.337693         2.011981
 H        -2.894155         0.671311         0.057803
 H        -4.347359        -1.103486        -1.013179
 H        -2.883052        -1.997881        -1.590168
 H        -3.276916        -1.995271         0.134506
 H        -1.282853         1.365704        -2.062781
 H        -1.941709        -0.264923        -2.746958
 H        -4.626345         2.637684        -2.680939
