19
Iteration:  4430charge 0 multiplicity 1
 C         1.420694        -0.182423         1.077758
 C         0.143749        -0.385955         0.525826
 C        -0.954091        -0.544183         0.036613
 C        -2.276245        -0.145050        -0.468411
 C        -3.101160        -1.174133        -1.307306
 C        -2.245901         1.100373        -1.353857
 O        -3.518556         1.749988        -1.335733
 C        -3.855350         2.427189        -2.481484
 O        -3.124693         2.649216        -3.420490
 H         2.250370        -0.515288         0.528477
 H         1.426349         0.868882         1.364113
 H         1.408525        -0.777622         2.086528
 H        -2.885187         0.138947         0.452404
 H        -3.976744        -0.662736        -1.875852
 H        -2.501946        -1.714417        -1.964477
 H        -3.749282        -1.881739        -0.746189
 H        -1.525717         1.766390        -0.888029
 H        -2.023704         0.683232        -2.411752
 H        -4.935843         2.779552        -2.431186
