19
Iteration:  1896charge 0 multiplicity 1
 C         1.362355         0.282713         0.512678
 C        -0.107705         0.067586         0.172905
 C        -1.315733        -0.115139        -0.013183
 C        -2.727877        -0.294218        -0.281964
 C        -2.954359        -1.836266        -0.506642
 C        -3.020117         0.512120        -1.549606
 O        -2.913282         1.951533        -1.244958
 C        -3.023393         2.698247        -2.309630
 O        -3.067174         2.396101        -3.491719
 H         1.607143         0.928404         1.454366
 H         2.064702        -0.647757         0.468637
 H         1.914530         0.923394        -0.169201
 H        -3.370514        -0.054030         0.563073
 H        -3.436086        -1.984434        -1.545779
 H        -1.977626        -2.349777        -0.749200
 H        -3.605365        -2.403211         0.185128
 H        -2.195758         0.317724        -2.183881
 H        -3.952561         0.475345        -2.118953
 H        -3.137171         3.685864        -2.045828
