19
Iteration:   274charge 0 multiplicity 1
 C         1.195225         0.520727        -0.727706
 C        -0.115939         0.062555        -0.301002
 C        -1.328549        -0.095080        -0.079022
 C        -2.812856        -0.070011         0.120580
 C        -3.226494        -1.608747         0.209130
 C        -3.532270         0.564836        -1.170967
 O        -3.444613         2.006214        -1.388940
 C        -2.417433         2.445597        -2.225239
 O        -2.064882         1.855442        -3.213486
 H         2.009253        -0.343559        -0.505706
 H         1.004806         0.682776        -1.796622
 H         1.520377         1.428022        -0.258839
 H        -3.141298         0.510843         1.075419
 H        -2.868503        -2.000049         1.142653
 H        -4.275983        -1.842286         0.131087
 H        -2.565326        -1.992509        -0.553227
 H        -3.223050         0.143381        -2.074439
 H        -4.611958         0.486750        -1.041196
 H        -2.032806         3.516581        -2.023057
