19
Iteration:  1439charge 0 multiplicity 1
 C         1.113371         0.230456         1.155429
 C        -0.238241         0.199359         0.434013
 C        -1.090643         0.047429        -0.386550
 C        -2.431496        -0.129081        -0.814349
 C        -3.060803        -1.503655        -0.485610
 C        -2.641873         0.158151        -2.332286
 O        -2.275297         1.551090        -2.733684
 C        -3.020203         2.624130        -2.223455
 O        -3.963145         2.567838        -1.502987
 H         0.977255         0.001665         2.211557
 H         1.595229        -0.537346         0.534363
 H         1.529173         1.233055         1.013124
 H        -2.960404         0.625803        -0.258388
 H        -2.278148        -2.299156        -0.480221
 H        -3.578660        -1.540919         0.453600
 H        -3.835930        -1.806274        -1.159242
 H        -2.023311        -0.494488        -2.964479
 H        -3.724215         0.006457        -2.556230
 H        -2.662901         3.618240        -2.800939
