19
Iteration:  4357charge 0 multiplicity 1
 C         1.438701        -0.364754         1.030005
 C         0.026647        -0.332664         0.603420
 C        -1.150574        -0.395070         0.293981
 C        -2.445508        -0.193124        -0.433548
 C        -2.785605        -1.368920        -1.413667
 C        -2.252527         1.162114        -1.290544
 O        -3.371777         2.034745        -1.348649
 C        -3.773941         2.635750        -2.470276
 O        -3.362019         2.416421        -3.563984
 H         2.144098         0.047233         0.219049
 H         1.456842         0.017315         2.020148
 H         1.874354        -1.417317         0.927654
 H        -3.210410        -0.018235         0.292202
 H        -3.795072        -1.887176        -1.309815
 H        -2.506061        -0.983811        -2.469075
 H        -2.075971        -2.183593        -1.162343
 H        -1.482631         1.706256        -0.836061
 H        -1.972790         0.745122        -2.262526
 H        -4.620479         3.268430        -2.280857
