19
Iteration:  1247charge 0 multiplicity 1
 C         0.842397         0.845862         0.419184
 C        -0.473613         0.375910         0.203890
 C        -1.435331        -0.179805        -0.189097
 C        -2.807137        -0.435752        -0.752074
 C        -3.142915        -1.906796        -0.606425
 C        -2.880991         0.227540        -2.118723
 O        -1.965779         1.424131        -2.406048
 C        -2.427884         2.599682        -1.967037
 O        -3.495493         2.689353        -1.462962
 H         1.290837         1.214603        -0.544136
 H         0.766127         1.812153         0.894969
 H         1.513782         0.148535         0.940725
 H        -3.554810         0.038025        -0.075358
 H        -2.616894        -2.404800        -1.443043
 H        -2.945136        -2.190706         0.472362
 H        -4.193076        -2.206289        -0.686202
 H        -2.538366        -0.459334        -2.875955
 H        -3.862493         0.573113        -2.359741
 H        -1.771340         3.561514        -1.906809
