19
Iteration:  3845
 C         1.425178        -0.915706         0.574254
 C         0.145941        -0.368555         0.335606
 C        -0.991831         0.006600         0.266444
 C        -2.342773         0.141796        -0.102432
 C        -2.745729        -1.030749        -1.096155
 C        -2.407548         1.555492        -0.851560
 O        -3.846160         1.914432        -1.395857
 C        -3.859126         2.244489        -2.781245
 O        -2.966307         2.134568        -3.615055
 H         2.203837        -0.255015         0.206555
 H         1.586591        -1.062408         1.717801
 H         1.750339        -1.894357         0.213910
 H        -3.025540         0.180842         0.783561
 H        -3.838647        -0.974663        -1.227890
 H        -2.299217        -0.737049        -2.044604
 H        -2.430242        -1.933094        -0.562592
 H        -2.286476         2.332815        -0.075974
 H        -1.652172         1.683875        -1.673327
 H        -4.936832         2.497680        -2.943433
