19
Iteration:  4947
 C         1.217318         0.218676         1.190280
 C         0.176091        -0.189113         0.236857
 C        -1.046849        -0.274779        -0.114457
 C        -2.336531        -0.131814        -0.772804
 C        -3.545836        -1.144714        -0.750201
 C        -2.145140         0.539584        -2.226118
 O        -3.358615         1.050633        -2.618813
 C        -3.622808         2.404956        -2.322667
 O        -2.875922         3.036424        -1.562731
 H         2.306901        -0.061552         0.954222
 H         1.125251         1.259760         1.355409
 H         0.838384        -0.131704         2.179151
 H        -2.846423         0.744163        -0.368916
 H        -4.476609        -0.498477        -0.644246
 H        -3.554527        -1.699511        -1.696032
 H        -3.406417        -1.835482         0.085112
 H        -1.472974         1.473673        -1.921497
 H        -1.679614        -0.200524        -2.925468
 H        -4.645916         2.693391        -2.632946
