19
Iteration:  2331
 C         1.072695         0.923425         0.259808
 C        -0.255044         0.232055        -0.070567
 C        -1.342300        -0.222269        -0.243269
 C        -2.809869        -0.552167        -0.446057
 C        -3.267082        -1.997556        -0.431754
 C        -3.233568         0.388882        -1.695337
 O        -3.324763         1.794010        -1.280069
 C        -2.522234         2.671644        -1.931601
 O        -2.089255         2.384714        -3.029051
 H         1.119414         1.906536         0.839931
 H         1.471080         0.192584         0.927560
 H         1.617949         0.985516        -0.810118
 H        -3.229745        -0.004576         0.404888
 H        -3.031139        -2.635926         0.467154
 H        -4.336070        -1.858444        -0.590752
 H        -2.697140        -2.571452        -1.146349
 H        -2.506618         0.332557        -2.566714
 H        -4.152604         0.112936        -2.206882
 H        -2.536124         3.576106        -1.296044
