19
Iteration:   915charge 0 multiplicity 1
 C         1.359343         0.047361         0.807921
 C        -0.037485        -0.128536         0.263647
 C        -1.195071        -0.031644        -0.126590
 C        -2.508832         0.016799        -0.717234
 C        -3.151312        -1.390421        -0.129912
 C        -2.558972         0.337839        -2.143387
 O        -2.149610         1.714118        -2.292363
 C        -3.103599         2.649129        -2.296461
 O        -4.297868         2.450621        -2.239878
 H         2.018810        -0.171027         0.015071
 H         1.644610         1.002566         1.322384
 H         1.555564        -0.814339         1.506503
 H        -3.010431         0.956708        -0.321055
 H        -2.600419        -1.385545         0.804396
 H        -4.221295        -1.306165         0.070988
 H        -2.952290        -2.202442        -0.849387
 H        -1.856494        -0.347427        -2.632665
 H        -3.625506         0.213617        -2.425810
 H        -2.669274         3.638465        -2.509010
