19
Iteration:   437charge 0 multiplicity 1
 C         1.457639         0.074296        -0.028230
 C         0.002923         0.167711        -0.147617
 C        -1.222066        -0.046117        -0.146959
 C        -2.674151        -0.183649         0.054922
 C        -3.138530        -1.642313         0.020320
 C        -3.358991         0.702945        -1.272198
 O        -2.867193         2.067138        -1.248619
 C        -2.880466         2.624037        -2.507263
 O        -3.042399         1.996923        -3.530223
 H         1.821038         1.020922         0.279624
 H         1.793248        -0.649866         0.787718
 H         2.048862        -0.026041        -1.097360
 H        -2.855620         0.285008         0.977618
 H        -2.820083        -2.340865         0.828227
 H        -4.242247        -1.686288         0.072855
 H        -2.752101        -2.093182        -0.925560
 H        -2.863994         0.188530        -2.065058
 H        -4.463230         0.544954        -1.349863
 H        -2.559908         3.599218        -2.365871
