19
Iteration:  3680charge 0 multiplicity 1
 C         1.519006        -0.793282         0.770057
 C         0.128172        -0.370026         0.750718
 C        -0.989735        -0.150462         0.280924
 C        -2.250615         0.050831        -0.415119
 C        -2.849698        -1.251584        -1.059956
 C        -2.276845         1.368230        -1.426930
 O        -3.570347         1.959652        -1.403001
 C        -3.998886         2.504354        -2.555219
 O        -3.315624         2.360306        -3.535345
 H         1.964855        -0.785242         1.824924
 H         1.707811        -1.896678         0.377664
 H         2.365728        -0.184444         0.358260
 H        -2.872585         0.351978         0.493288
 H        -3.374791        -1.140169        -1.987221
 H        -2.058530        -1.962695        -1.439426
 H        -3.555964        -1.722544        -0.335433
 H        -1.563288         2.167173        -1.178600
 H        -2.011763         0.990156        -2.367012
 H        -5.045717         3.000659        -2.499068
