19
Iteration:  1348charge 0 multiplicity 1
 C         1.023249         0.591945         0.830549
 C        -0.311497         0.277271         0.305817
 C        -1.370347         0.004549        -0.215066
 C        -2.656398        -0.268060        -0.836965
 C        -3.134959        -1.780568        -0.534935
 C        -2.848491         0.246889        -2.386913
 O        -2.095691         1.442569        -2.624002
 C        -2.765430         2.603007        -2.163935
 O        -3.611895         2.576760        -1.296439
 H         1.893761        -0.122187         1.098150
 H         1.522423         1.327900         0.108262
 H         1.006605         1.084632         1.762675
 H        -3.348875         0.327060        -0.217221
 H        -4.055191        -1.658537         0.039341
 H        -3.237544        -2.263140        -1.542454
 H        -2.401138        -2.356980         0.116385
 H        -2.463884        -0.522012        -3.050625
 H        -3.887421         0.407027        -2.588843
 H        -2.147552         3.589377        -2.597743
