19
Iteration:  2330
 C         1.069756         0.934166         0.253910
 C        -0.254632         0.232600        -0.065956
 C        -1.338390        -0.224096        -0.246568
 C        -2.804673        -0.563140        -0.452957
 C        -3.273150        -1.996525        -0.428386
 C        -3.234400         0.387039        -1.693725
 O        -3.321384         1.798140        -1.279920
 C        -2.527163         2.669145        -1.929859
 O        -2.083798         2.385435        -3.029319
 H         1.085003         1.905386         0.876401
 H         1.489446         0.182925         0.900112
 H         1.615650         0.972527        -0.821451
 H        -3.238121        -0.018020         0.389777
 H        -3.061041        -2.617029         0.516827
 H        -4.357598        -1.866941        -0.614348
 H        -2.687461        -2.587502        -1.138930
 H        -2.511907         0.348715        -2.551153
 H        -4.174474         0.154396        -2.200660
 H        -2.518173         3.541896        -1.275253
