19
Iteration:  2501
 C         1.268515         0.165281         0.691651
 C        -0.100737         0.179255         0.140164
 C        -1.241489         0.084156        -0.366198
 C        -2.585644        -0.314847        -0.519482
 C        -2.661992        -1.921434        -0.630298
 C        -3.471208         0.489334        -1.522812
 O        -3.481341         1.926494        -1.227890
 C        -2.941293         2.733941        -2.199106
 O        -2.432176         2.437935        -3.269146
 H         1.729337        -0.536768        -0.000201
 H         1.570024         1.224742         1.076065
 H         1.087465        -0.535500         1.529584
 H        -3.101536        -0.184612         0.467540
 H        -3.358422        -2.353854         0.133572
 H        -3.098080        -2.172169        -1.589850
 H        -1.682321        -2.424791        -0.659527
 H        -3.205348         0.449638        -2.597304
 H        -4.555332         0.223817        -1.438109
 H        -3.168382         3.735106        -1.735787
