19
Iteration:   972
 C         1.342106         0.024832         0.916455
 C         0.040705         0.149841         0.242105
 C        -1.132301         0.060742        -0.136617
 C        -2.502397         0.036449        -0.580435
 C        -3.112796        -1.415188        -0.440976
 C        -2.738797         0.194319        -2.090434
 O        -2.260202         1.500346        -2.523778
 C        -3.056702         2.531021        -2.369052
 O        -4.173068         2.670590        -1.895561
 H         1.851720        -0.956538         0.769571
 H         2.048585         0.834354         0.739847
 H         0.984581         0.132919         1.929449
 H        -2.966814         0.831676         0.022778
 H        -3.831829        -1.622006         0.363038
 H        -3.658812        -1.552317        -1.393145
 H        -2.321969        -2.196990        -0.294329
 H        -2.190560        -0.523501        -2.712450
 H        -3.766508         0.091824        -2.339366
 H        -2.516580         3.475616        -2.502695
