19
Iteration:  1158
 C         0.911088         0.826148         0.530891
 C        -0.351598         0.360232         0.183296
 C        -1.342701        -0.183454        -0.203451
 C        -2.769229        -0.244959        -0.773456
 C        -3.263512        -1.719653        -0.526149
 C        -2.756154         0.116703        -2.243385
 O        -2.085164         1.404611        -2.497853
 C        -2.543555         2.530014        -2.013661
 O        -3.566097         2.612226        -1.314474
 H         1.054550         1.863461         0.787449
 H         1.135209         0.302900         1.413013
 H         1.685610         0.550874        -0.276631
 H        -3.448245         0.502718        -0.324883
 H        -2.600563        -2.355944         0.060654
 H        -4.297447        -1.719865        -0.257254
 H        -3.197497        -2.140678        -1.514596
 H        -2.177092        -0.603235        -2.801635
 H        -3.742672         0.147766        -2.662475
 H        -1.807606         3.185526        -2.481980
