19
Iteration:  3432charge 0 multiplicity 1
 C         1.257052        -0.189914         1.105612
 C        -0.126155        -0.046885         0.641789
 C        -1.251791        -0.130759         0.100862
 C        -2.573834        -0.185139        -0.459768
 C        -2.694870        -1.708770        -1.093992
 C        -2.801825         0.558457        -1.729122
 O        -2.448431         1.925504        -1.602920
 C        -3.055592         2.840129        -2.437203
 O        -3.990556         2.632632        -3.187622
 H         1.914328        -0.359331         0.262357
 H         1.646393         0.743659         1.579508
 H         1.477219        -0.998165         1.881005
 H        -3.392580        -0.082032         0.237150
 H        -3.692098        -2.086310        -1.295325
 H        -2.092076        -1.674801        -2.017529
 H        -2.283114        -2.462572        -0.413730
 H        -2.207202         0.251455        -2.576748
 H        -3.966048         0.462315        -1.902454
 H        -2.647570         3.876062        -2.275588
