19
Iteration:  2991
 C         1.453454        -0.209378         1.048529
 C         0.081496        -0.203367         0.455400
 C        -1.051634        -0.231142         0.075130
 C        -2.386134        -0.216443        -0.510963
 C        -2.965654        -1.518035        -0.991370
 C        -2.655215         0.755119        -1.697862
 O        -3.189602         2.006769        -1.222592
 C        -3.350746         2.835379        -2.352096
 O        -3.477083         2.421649        -3.496236
 H         1.886165        -1.078079         0.530694
 H         2.121497         0.744191         0.860536
 H         1.296209        -0.461315         2.118281
 H        -3.110329         0.330718         0.141668
 H        -4.059499        -1.525016        -0.857160
 H        -2.697663        -1.781314        -1.994101
 H        -2.679715        -2.396382        -0.434960
 H        -1.814789         0.950837        -2.424902
 H        -3.295434         0.236678        -2.367774
 H        -3.714562         3.815148        -2.023590
