19
Iteration:  1341
 C         1.042175         0.639308         0.821215
 C        -0.293907         0.299070         0.282247
 C        -1.406446        -0.009914        -0.174205
 C        -2.659517        -0.321147        -0.833133
 C        -3.126736        -1.787667        -0.548338
 C        -2.805693         0.279839        -2.360618
 O        -2.143990         1.411659        -2.621473
 C        -2.688707         2.613357        -2.107467
 O        -3.600602         2.605542        -1.333747
 H         1.651716        -0.251278         0.718698
 H         1.346032         1.376651         0.061522
 H         0.934145         1.092331         1.829572
 H        -3.430673         0.255912        -0.340623
 H        -4.165127        -1.708234        -0.211391
 H        -3.161087        -2.451086        -1.376818
 H        -2.552415        -2.360633         0.134918
 H        -2.446979        -0.487289        -3.079554
 H        -3.911897         0.452817        -2.526052
 H        -2.285132         3.477112        -2.497273
