19
Iteration:   160charge 0 multiplicity 1
 C         0.966967         0.628453        -1.026301
 C        -0.206071         0.113579        -0.364168
 C        -1.403339         0.069863        -0.191017
 C        -2.844979         0.026973         0.087442
 C        -3.237887        -1.540193         0.283168
 C        -3.612407         0.483948        -1.167998
 O        -3.464355         1.848809        -1.390298
 C        -2.374627         2.355689        -2.165734
 O        -1.599666         1.765311        -2.908805
 H         1.000737         0.388700        -1.954745
 H         0.977898         1.790339        -0.761428
 H         1.910925         0.022180        -0.624470
 H        -3.141574         0.752666         0.803409
 H        -2.955879        -2.017533         1.265383
 H        -4.353668        -1.653324         0.128942
 H        -2.692045        -2.081937        -0.529285
 H        -3.424213        -0.241200        -2.038723
 H        -4.633062         0.321484        -0.778914
 H        -2.296233         3.443334        -1.815336
