19
Iteration:  3296charge 0 multiplicity 1
 C         1.020908         0.509598         0.919657
 C        -0.203560        -0.021170         0.340981
 C        -1.240263        -0.477253        -0.153194
 C        -2.607055        -0.472880        -0.665703
 C        -3.068817        -1.951571        -0.649999
 C        -2.617847         0.363463        -1.993491
 O        -2.391198         1.804261        -1.486006
 C        -2.852445         2.877115        -2.170457
 O        -3.729350         2.917467        -3.008075
 H         0.888584         1.581693         1.004351
 H         1.103038        -0.066440         1.979598
 H         1.936953         0.181207         0.480305
 H        -3.262686        -0.000047         0.055798
 H        -4.221589        -1.922530        -0.536574
 H        -2.663224        -2.498614        -1.515213
 H        -2.584359        -2.442493         0.266787
 H        -1.771983         0.044618        -2.762000
 H        -3.512636         0.160343        -2.558746
 H        -2.371800         3.727591        -1.678891
