19
Iteration:   142charge 0 multiplicity 1
 C         1.022919         0.614139        -0.953526
 C        -0.176281         0.086743        -0.295555
 C        -1.421955         0.125840        -0.284492
 C        -2.791292        -0.024105         0.024266
 C        -3.244793        -1.390826         0.214937
 C        -3.673865         0.429120        -1.127366
 O        -3.386407         1.834777        -1.369426
 C        -2.432022         2.324682        -2.141051
 O        -1.647710         1.726482        -2.861047
 H         0.685395         0.733164        -2.228248
 H         1.249920         1.549934        -0.603961
 H         1.969598         0.169031        -1.021220
 H        -3.013826         0.562325         1.013731
 H        -3.223600        -1.661944         1.243543
 H        -4.237081        -1.563448        -0.143892
 H        -2.703280        -2.136367        -0.333483
 H        -3.398876        -0.126871        -2.003616
 H        -4.729716         0.299992        -0.946741
 H        -2.621384         3.412869        -2.154059
