19
Iteration:   861charge 0 multiplicity 1
 C         1.573784        -0.103684         0.697998
 C         0.091407         0.021899         0.338482
 C        -1.113181        -0.118088         0.158144
 C        -2.464365        -0.034040        -0.433124
 C        -3.340465        -1.260848        -0.346675
 C        -2.610917         0.381616        -2.038958
 O        -2.157159         1.752219        -2.239325
 C        -3.218189         2.678419        -2.383406
 O        -4.374107         2.365036        -2.479752
 H         2.143575         0.624265         0.131892
 H         1.775030         0.190199         1.751548
 H         2.079164        -0.969904         0.418372
 H        -2.895706         0.826947         0.129931
 H        -3.205567        -1.902648         0.563757
 H        -4.404432        -0.940012        -0.377225
 H        -3.018162        -1.957812        -1.199178
 H        -1.921057        -0.305624        -2.565955
 H        -3.654040         0.295110        -2.434121
 H        -2.643998         3.706080        -2.457565
