19
Iteration:  1625charge 0 multiplicity 1
 C         1.462362        -0.060569         0.830918
 C         0.007621         0.005297         0.454694
 C        -1.146749        -0.069403         0.053652
 C        -2.511422        -0.089349        -0.487993
 C        -3.232208        -1.508979        -0.567663
 C        -2.380914         0.489878        -1.898830
 O        -2.221018         1.998227        -1.870188
 C        -3.258249         2.655803        -2.422226
 O        -4.345468         2.268455        -2.824879
 H         2.081040         0.474992         0.123731
 H         1.689961         0.475432         1.780330
 H         1.961178        -1.052375         1.076800
 H        -3.123006         0.586310         0.080014
 H        -2.639471        -2.427942        -0.345198
 H        -4.117475        -1.689926         0.084104
 H        -3.452717        -1.609621        -1.633684
 H        -1.521858         0.139756        -2.478782
 H        -3.315796         0.348436        -2.486288
 H        -3.014519         3.648823        -2.264293
