19
Iteration:  4988charge 0 multiplicity 1
 C         1.249113         0.105636         1.003611
 C        -0.096863        -0.141219         0.557528
 C        -1.089233        -0.334085        -0.139289
 C        -2.449887        -0.063981        -0.648324
 C        -3.253732        -1.347146        -0.765786
 C        -2.141833         0.560327        -2.046312
 O        -3.309303         1.163714        -2.685761
 C        -3.628308         2.434332        -2.351884
 O        -2.937730         3.200226        -1.697107
 H         1.811125        -0.715621         0.515511
 H         1.583834         0.971678         0.393230
 H         1.569399         0.313525         2.066106
 H        -2.860796         0.653513         0.190730
 H        -4.317819        -1.100723        -0.922799
 H        -2.927515        -1.938234        -1.724186
 H        -3.309541        -2.015043         0.122175
 H        -1.294211         1.283505        -2.068163
 H        -1.858760        -0.217608        -2.769260
 H        -4.734423         2.603340        -2.615761
