19
Iteration:  1763
 C         1.385576        -0.172184         0.900107
 C         0.046392        -0.017542         0.402236
 C        -1.041207         0.063966        -0.128042
 C        -2.416590        -0.174587        -0.478616
 C        -2.837898        -1.648972        -0.486223
 C        -2.891773         0.569832        -1.684148
 O        -2.731875         1.927566        -1.440322
 C        -3.188737         2.724956        -2.485541
 O        -3.905168         2.441108        -3.415287
 H         1.654986        -1.275117         1.000908
 H         1.979077         0.468937         0.168201
 H         1.432574         0.340000         1.843857
 H        -2.942512         0.300253         0.388640
 H        -3.346084        -1.779483         0.517359
 H        -3.425738        -1.870787        -1.370433
 H        -1.939143        -2.220883        -0.256961
 H        -2.279708         0.188255        -2.488000
 H        -3.929570         0.299844        -1.896837
 H        -2.910733         3.743942        -2.341818
