19
Iteration:  2896
 C         1.344852        -0.186035         0.852976
 C        -0.113957        -0.241015         0.573989
 C        -1.267479        -0.024438         0.156263
 C        -2.487869        -0.239437        -0.467613
 C        -2.745401        -1.737166        -0.719351
 C        -2.579147         0.552766        -1.781336
 O        -2.920275         1.913429        -1.452514
 C        -3.350724         2.869689        -2.304228
 O        -3.561662         2.775194        -3.496488
 H         1.641750         0.235869        -0.146729
 H         1.645217         0.464143         1.625143
 H         1.686980        -1.259352         0.914394
 H        -3.337379         0.070774         0.191683
 H        -3.567815        -1.915372        -1.492863
 H        -1.786740        -2.177180        -1.115135
 H        -3.110618        -2.280572         0.214651
 H        -1.636079         0.385621        -2.373912
 H        -3.293282         0.035092        -2.420029
 H        -3.366564         3.741049        -1.578214
