19
Iteration:  4000
 C         1.452573        -0.394147         0.923647
 C         0.149924        -0.415087         0.297519
 C        -0.958955        -0.299579        -0.251607
 C        -2.448094        -0.017328        -0.387289
 C        -3.247106        -1.005674        -1.266083
 C        -2.263911         1.445777        -0.925788
 O        -3.465333         2.221571        -1.255077
 C        -3.692392         2.380863        -2.552670
 O        -3.160964         1.680793        -3.390537
 H         2.122923        -1.114777         0.638126
 H         2.085616         0.551796         0.665911
 H         1.356487        -0.722408         2.003164
 H        -2.971019        -0.004628         0.573349
 H        -4.359879        -1.251678        -0.996526
 H        -3.144098        -0.780792        -2.371408
 H        -2.671197        -1.929785        -1.293525
 H        -1.805999         2.028566        -0.151607
 H        -1.431167         1.382971        -1.740448
 H        -4.299787         3.274652        -2.687893
