19
Iteration:   912
 C         1.335779         0.050169         0.775445
 C        -0.022994        -0.145039         0.279324
 C        -1.183550        -0.029427        -0.123884
 C        -2.504107         0.036793        -0.683420
 C        -3.153160        -1.372924        -0.144913
 C        -2.537906         0.311848        -2.133766
 O        -2.162440         1.722888        -2.285970
 C        -3.099512         2.639566        -2.307476
 O        -4.318206         2.456605        -2.254481
 H         2.123842        -0.121746         0.004618
 H         1.547736         0.998188         1.352153
 H         1.590828        -0.922309         1.524496
 H        -3.055830         0.964673        -0.373964
 H        -2.595470        -1.487731         0.789948
 H        -4.206601        -1.287773         0.096740
 H        -2.982222        -2.123068        -0.877338
 H        -1.788192        -0.349056        -2.607425
 H        -3.615888         0.185199        -2.463970
 H        -2.571622         3.607525        -2.373146
