19
Iteration:   443
 C         1.480241         0.097647        -0.012965
 C        -0.004060         0.134130        -0.175544
 C        -1.198557         0.000552        -0.113420
 C        -2.673646        -0.186620         0.005092
 C        -3.184532        -1.668790         0.024099
 C        -3.285075         0.645268        -1.224943
 O        -2.869295         2.071885        -1.262686
 C        -2.899177         2.630881        -2.517193
 O        -3.069603         2.013310        -3.519233
 H         1.880806         1.153893         0.149077
 H         1.685673        -0.733416         0.640125
 H         2.092520        -0.248581        -0.787787
 H        -3.018691         0.336559         0.984622
 H        -2.911683        -2.269432         0.888863
 H        -4.284450        -1.660251        -0.110812
 H        -2.701600        -2.101373        -0.847952
 H        -2.826972         0.172837        -2.130889
 H        -4.378605         0.629320        -1.244242
 H        -2.547809         3.749777        -2.494625
