19
Iteration:   737
 C         1.449991        -0.294716         0.611763
 C         0.092804         0.030432         0.417030
 C        -1.019790         0.112988        -0.010292
 C        -2.404146        -0.017189        -0.479121
 C        -3.052085        -1.361233        -0.076112
 C        -2.763689         0.418850        -1.863042
 O        -2.385624         1.779534        -1.890159
 C        -3.192392         2.693291        -2.482513
 O        -4.282020         2.418427        -2.989410
 H         1.777929        -0.624235         1.518864
 H         1.465422        -1.220420         0.003866
 H         2.247485         0.472786         0.237023
 H        -2.980299         0.808951         0.081126
 H        -2.518816        -1.752158         0.804761
 H        -4.177076        -1.309978         0.137175
 H        -2.880112        -2.079773        -0.909797
 H        -2.270646        -0.155471        -2.717983
 H        -3.871278         0.224576        -1.933252
 H        -2.668301         3.716896        -2.205287
