19
Iteration:   143
 C         1.015611         0.611593        -0.954315
 C        -0.181118         0.082335        -0.294080
 C        -1.416377         0.127038        -0.288321
 C        -2.788539        -0.014105         0.026952
 C        -3.247202        -1.391954         0.213186
 C        -3.668623         0.428584        -1.123375
 O        -3.381428         1.830355        -1.374472
 C        -2.440625         2.315149        -2.136948
 O        -1.644621         1.733239        -2.861818
 H         0.665806         0.729961        -2.217690
 H         1.240086         1.569354        -0.641671
 H         1.954734         0.190656        -0.984881
 H        -3.003705         0.560188         1.010506
 H        -3.208057        -1.660890         1.245684
 H        -4.243946        -1.570540        -0.139461
 H        -2.690689        -2.129682        -0.350467
 H        -3.405546        -0.114888        -1.992406
 H        -4.751290         0.323289        -0.961502
 H        -2.594120         3.387031        -2.123848
