19
Iteration:  3485
 C         1.274156        -0.229679         1.240937
 C        -0.011950        -0.210862         0.473268
 C        -1.104259        -0.246791        -0.029688
 C        -2.424942        -0.284153        -0.652673
 C        -2.837489        -1.708472        -0.730764
 C        -2.598676         0.685009        -1.976723
 O        -2.646148         2.068395        -1.494001
 C        -3.405042         2.901059        -2.240572
 O        -3.857552         2.642014        -3.364041
 H         1.859187        -0.936443         0.763244
 H         1.807505         0.775595         1.256425
 H         1.141618        -0.490180         2.298896
 H        -3.151314         0.035355         0.069992
 H        -3.832913        -1.835654        -1.219815
 H        -2.139503        -2.469845        -1.193810
 H        -2.914882        -2.163251         0.277098
 H        -1.699667         0.757390        -2.621862
 H        -3.436662         0.446474        -2.719834
 H        -3.503012         3.886438        -1.831270
