19
Iteration:  2272charge 0 multiplicity 1
 C         0.868710         1.084916         0.055218
 C        -0.333084         0.222189        -0.162139
 C        -1.421384        -0.223884        -0.238954
 C        -2.854658        -0.548028        -0.312493
 C        -3.298434        -2.041591        -0.503341
 C        -3.330860         0.287723        -1.520941
 O        -3.181762         1.720425        -1.208592
 C        -2.432610         2.617614        -1.955904
 O        -1.796287         2.457127        -2.991593
 H         0.849107         1.450065         1.178058
 H         1.822929         0.573399        -0.316125
 H         0.838643         1.960429        -0.670753
 H        -3.383031        -0.060047         0.505168
 H        -3.978133        -2.348665         0.326248
 H        -3.745244        -2.270884        -1.518685
 H        -2.381984        -2.698476        -0.605233
 H        -2.771470         0.138976        -2.401292
 H        -4.438802         0.194303        -1.658009
 H        -2.711620         3.652461        -1.595256
