19
Iteration:  3351
 C         1.148320         0.177335         1.067567
 C        -0.118678        -0.007892         0.468130
 C        -1.206387        -0.052957         0.010816
 C        -2.555700        -0.375268        -0.527600
 C        -2.900358        -1.873213        -0.909544
 C        -2.983013         0.416124        -1.893227
 O        -2.413392         1.682448        -1.735003
 C        -2.903848         2.841550        -2.167861
 O        -3.764513         2.846188        -3.029457
 H         1.592839         0.999077         0.567056
 H         1.205818         0.579490         2.123091
 H         1.877072        -0.542741         0.811512
 H        -3.300120        -0.130805         0.209868
 H        -3.762046        -1.820724        -1.635175
 H        -2.007009        -2.076471        -1.525572
 H        -2.837562        -2.567645        -0.034076
 H        -2.475004        -0.127621        -2.787596
 H        -4.053988         0.313426        -2.007233
 H        -2.378103         3.648880        -1.705176
