19
Iteration:   279charge 0 multiplicity 1
 C         1.215772         0.498958        -0.682021
 C        -0.137487         0.040690        -0.314365
 C        -1.302646        -0.110440        -0.086531
 C        -2.793269        -0.043320         0.133974
 C        -3.202393        -1.585317         0.200462
 C        -3.592524         0.548109        -1.197835
 O        -3.424792         2.004871        -1.340069
 C        -2.404958         2.495356        -2.242596
 O        -2.093291         1.837237        -3.231821
 H         1.950018        -0.209084        -0.389261
 H         0.915168         0.633477        -1.744324
 H         1.555743         1.523231        -0.331281
 H        -3.035610         0.507874         1.035731
 H        -2.926756        -2.018880         1.200283
 H        -4.278257        -1.777977        -0.055793
 H        -2.509085        -1.972724        -0.579572
 H        -3.175773         0.053538        -2.166776
 H        -4.675176         0.354773        -1.061175
 H        -2.116425         3.518152        -2.121464
