19
Iteration:  2582charge 0 multiplicity 1
 C         1.217525         0.499511         0.530877
 C        -0.108766         0.082240         0.103491
 C        -1.227360        -0.280353        -0.033742
 C        -2.669154        -0.470684        -0.439208
 C        -3.115454        -2.001152        -0.693266
 C        -3.024349         0.523415        -1.670122
 O        -3.175244         1.825726        -1.133541
 C        -2.922408         2.782833        -2.134649
 O        -2.698196         2.630437        -3.318813
 H         2.080624        -0.162199         0.667289
 H         1.577970         1.026282        -0.363744
 H         1.308579         1.167811         1.354949
 H        -3.371859        -0.204037         0.363717
 H        -3.996683        -1.958426        -1.343095
 H        -2.213095        -2.475245        -1.187056
 H        -3.337614        -2.440589         0.306695
 H        -2.086954         0.491590        -2.255037
 H        -3.859577         0.084334        -2.218868
 H        -3.136468         3.775009        -1.675820
