19
Iteration:  3050charge 0 multiplicity 1
 C         1.358176        -0.190117         1.092109
 C         0.103622        -0.308817         0.362746
 C        -1.016994        -0.233451        -0.058689
 C        -2.460601        -0.227565        -0.506908
 C        -2.786219        -1.694463        -0.864951
 C        -2.922962         0.708849        -1.692993
 O        -2.973314         2.039967        -1.294884
 C        -3.403681         2.890973        -2.341609
 O        -3.477873         2.593094        -3.519699
 H         1.761778        -1.103808         1.623178
 H         2.080900         0.374813         0.581013
 H         0.949495         0.491123         1.954631
 H        -3.087333         0.179403         0.295510
 H        -3.877091        -1.900640        -1.016736
 H        -2.162351        -2.026457        -1.774734
 H        -2.383981        -2.172764         0.088913
 H        -2.104909         0.694059        -2.379722
 H        -3.965543         0.414478        -2.015742
 H        -3.670392         3.815198        -1.846009
