19
Iteration:  1456
 C         1.093245         0.160250         1.110610
 C        -0.185877         0.144011         0.482034
 C        -1.065913         0.013779        -0.325539
 C        -2.530401        -0.041733        -0.847986
 C        -2.962518        -1.461221        -0.499932
 C        -2.664339         0.279512        -2.294741
 O        -2.215302         1.569486        -2.639961
 C        -3.101779         2.565338        -2.342500
 O        -4.019853         2.527561        -1.564855
 H         0.954251         0.190863         2.272317
 H         1.707060        -0.757913         0.931330
 H         1.647015         1.062967         0.771752
 H        -3.119224         0.717343        -0.262410
 H        -2.399825        -2.319443        -0.959540
 H        -2.722072        -1.705602         0.584138
 H        -4.088625        -1.609086        -0.694397
 H        -2.062918        -0.383695        -2.926966
 H        -3.703484         0.195606        -2.596512
 H        -2.657932         3.368338        -2.854723
