19
Iteration:   906charge 0 multiplicity 1
 C         1.316269         0.006279         0.734827
 C        -0.011576        -0.159135         0.299695
 C        -1.124797        -0.011848        -0.113121
 C        -2.512659         0.052031        -0.583365
 C        -3.153246        -1.299444        -0.173462
 C        -2.506858         0.257530        -2.127302
 O        -2.165371         1.715803        -2.281685
 C        -3.126861         2.633552        -2.324024
 O        -4.340371         2.473991        -2.286173
 H         2.151092         0.075616         0.023501
 H         1.292582         0.912154         1.341598
 H         1.576153        -0.731124         1.355490
 H        -3.150305         0.864007        -0.205984
 H        -2.651366        -1.800794         0.695852
 H        -4.229474        -1.231931         0.088993
 H        -3.007529        -2.087269        -0.977584
 H        -1.709542        -0.237882        -2.683953
 H        -3.457812         0.110136        -2.612220
 H        -2.513683         3.570706        -2.137469
