19
Iteration:   299
 C         1.238553         0.435982        -0.613872
 C        -0.116536         0.037929        -0.311840
 C        -1.331486         0.024648        -0.129392
 C        -2.775215        -0.073799        -0.044555
 C        -3.208286        -1.527399         0.136516
 C        -3.507434         0.559388        -1.152579
 O        -3.247079         1.972363        -1.212339
 C        -2.638995         2.418631        -2.282270
 O        -2.157098         1.823896        -3.246803
 H         1.918318        -0.147951         0.181037
 H         1.485884         0.402307        -1.666624
 H         1.326036         1.450407        -0.267823
 H        -3.178031         0.478450         0.898547
 H        -3.193401        -1.728881         1.226975
 H        -4.243329        -1.633843        -0.155959
 H        -2.480627        -2.150858        -0.394581
 H        -3.303484         0.194760        -2.198450
 H        -4.573363         0.590365        -0.948397
 H        -2.409746         3.511896        -2.186606
