19
Iteration:  2149
 C         0.967900         0.828452        -0.137942
 C        -0.380934         0.506012        -0.201224
 C        -1.545060         0.140885        -0.199140
 C        -2.914039        -0.424690        -0.257972
 C        -2.723558        -1.878326        -0.824793
 C        -3.690559         0.447203        -1.411829
 O        -3.493718         1.897295        -1.264789
 C        -2.418255         2.497697        -1.953158
 O        -1.668734         1.814056        -2.608346
 H         1.723809        -0.004437         0.000495
 H         1.216795         1.494783        -1.045423
 H         1.067591         1.170573         0.843049
 H        -3.445002        -0.446997         0.692132
 H        -2.996190        -2.034595        -1.908112
 H        -1.674908        -2.204183        -0.628968
 H        -3.458712        -2.602736        -0.382026
 H        -3.392181         0.118817        -2.465845
 H        -4.780597         0.409540        -1.317358
 H        -2.398711         3.531717        -1.594286
