19
Iteration:  3974
 C         1.403873        -0.361193         0.795670
 C         0.127210        -0.444534         0.274895
 C        -1.032130        -0.403390        -0.029424
 C        -2.397492        -0.030041        -0.379066
 C        -3.172523        -1.091478        -1.289657
 C        -2.279541         1.532620        -0.808295
 O        -3.503854         2.275501        -1.223844
 C        -3.617476         2.366587        -2.598623
 O        -3.145784         1.719470        -3.487964
 H         2.180521        -0.833937         0.065631
 H         1.772397         0.648985         0.769070
 H         1.638237        -0.849639         1.694781
 H        -2.988250        -0.062632         0.512583
 H        -4.221198        -0.701601        -1.441780
 H        -2.554860        -1.361652        -2.189895
 H        -3.254041        -2.114674        -0.803520
 H        -1.773901         2.201644        -0.039330
 H        -1.560109         1.471064        -1.708109
 H        -4.461613         3.070837        -2.692089
