19
Iteration:  1286
 C         0.972973         0.808023         0.537067
 C        -0.329063         0.327261         0.125673
 C        -1.519339         0.045538        -0.135930
 C        -2.756876        -0.326852        -0.755835
 C        -3.126607        -1.817378        -0.747973
 C        -2.865340         0.048462        -2.189193
 O        -2.064102         1.276763        -2.371966
 C        -2.502101         2.577035        -1.946468
 O        -3.574463         2.789519        -1.414442
 H         1.846746         0.506689        -0.055472
 H         0.854880         1.919904         0.677756
 H         1.076217         0.528087         1.640514
 H        -3.543629         0.262111        -0.265528
 H        -3.457666        -2.226362        -1.721667
 H        -2.299856        -2.460280        -0.556950
 H        -3.977954        -1.944121        -0.053344
 H        -2.374756        -0.680433        -2.881904
 H        -3.966303         0.151356        -2.431821
 H        -1.627562         3.165128        -2.026010
