19
Iteration:  2818
 C         1.178097         0.121173         1.098741
 C        -0.075059        -0.150608         0.298457
 C        -1.090538        -0.110830        -0.309046
 C        -2.566343        -0.273174        -0.515726
 C        -2.880924        -1.742342        -0.939220
 C        -3.123056         0.659106        -1.527539
 O        -2.582795         1.952516        -1.255273
 C        -3.015658         2.764641        -2.307875
 O        -3.490863         2.471445        -3.391998
 H         1.561238         1.138073         1.025424
 H         0.988283        -0.288866         1.994486
 H         2.075879        -0.470460         0.656936
 H        -3.088207        -0.186870         0.450398
 H        -3.860869        -2.288608        -0.759848
 H        -2.636974        -2.101867        -1.963454
 H        -2.200795        -2.346201        -0.335779
 H        -2.736302         0.338241        -2.534785
 H        -4.204431         0.640050        -1.489190
 H        -3.049380         3.807403        -1.902826
