19
Iteration:   542charge 0 multiplicity 1
 C         1.524948        -0.060121         0.104157
 C         0.052475         0.031351         0.155001
 C        -1.171667        -0.082348         0.138697
 C        -2.682807        -0.074090        -0.100077
 C        -3.102260        -1.529774         0.065809
 C        -2.981357         0.509634        -1.549735
 O        -2.664258         1.858667        -1.514002
 C        -3.081673         2.664327        -2.470876
 O        -3.580802         2.381423        -3.517311
 H         1.861991         0.190533        -1.069075
 H         2.041642         0.651603         0.829316
 H         1.973812        -0.935731         0.446839
 H        -3.205212         0.598140         0.635694
 H        -2.554206        -1.925089         0.904799
 H        -4.194625        -1.677049         0.121098
 H        -2.944035        -2.063099        -0.863264
 H        -2.185123        -0.002139        -2.097113
 H        -3.973314         0.268058        -1.987956
 H        -2.814433         3.778209        -2.179424
