19
Iteration:  3842
 C         1.435819        -0.939069         0.610344
 C         0.165483        -0.368103         0.311367
 C        -0.984556         0.004954         0.262002
 C        -2.347060         0.150571        -0.123950
 C        -2.759668        -1.031011        -1.074829
 C        -2.419000         1.566025        -0.860499
 O        -3.860180         1.898482        -1.381392
 C        -3.845471         2.244688        -2.782999
 O        -2.968170         2.139908        -3.614868
 H         2.254082        -0.175142         0.266772
 H         1.536637        -1.038449         1.674339
 H         1.639604        -1.880930         0.142724
 H        -2.952610         0.160900         0.754280
 H        -3.828411        -1.002263        -1.244866
 H        -2.400295        -0.680767        -2.080072
 H        -2.317370        -1.936341        -0.570319
 H        -2.303517         2.462612        -0.072056
 H        -1.683447         1.654895        -1.673351
 H        -4.876320         2.505839        -2.994585
