19
Iteration:   838
 C         1.468151        -0.100485         0.587464
 C         0.033185         0.013841         0.481716
 C        -1.065233        -0.166397        -0.044211
 C        -2.419938        -0.038936        -0.460475
 C        -3.327354        -1.311175        -0.314854
 C        -2.540956         0.478919        -1.879387
 O        -2.165246         1.860518        -2.081678
 C        -3.194731         2.625160        -2.600007
 O        -4.371461         2.316175        -2.492418
 H         2.087454         0.729649         0.380646
 H         1.614926        -0.324068         1.669172
 H         1.919286        -0.865780        -0.032734
 H        -2.774499         0.787772         0.222472
 H        -3.342299        -1.443120         0.797170
 H        -4.385926        -1.146690        -0.625254
 H        -2.781599        -2.234797        -0.679073
 H        -2.025488        -0.234621        -2.569983
 H        -3.658840         0.433473        -2.065814
 H        -2.729501         3.688050        -2.788538
