19
Iteration:  4859
 C         1.266761        -0.238011         1.225907
 C        -0.018040        -0.090337         0.496772
 C        -1.058634         0.161564        -0.134978
 C        -2.393373         0.116505        -0.826969
 C        -3.158864        -1.168125        -0.525249
 C        -2.208761         0.420568        -2.345092
 O        -3.370500         1.121258        -2.924878
 C        -3.716593         2.379786        -2.266662
 O        -2.996123         3.004075        -1.537554
 H         2.028994         0.311198         0.557431
 H         1.370958         0.302217         2.139362
 H         1.688464        -1.290352         1.296661
 H        -2.907214         0.933503        -0.377445
 H        -3.951417        -1.336423        -1.262188
 H        -2.541808        -2.071793        -0.399852
 H        -3.491947        -1.049991         0.517866
 H        -1.316028         1.205957        -2.426757
 H        -2.193126        -0.496906        -2.976579
 H        -4.595819         2.732268        -2.787011
