19
Iteration:  1349
 C         1.022446         0.586076         0.832774
 C        -0.317317         0.270138         0.308190
 C        -1.357626         0.008774        -0.220573
 C        -2.660323        -0.259486        -0.835887
 C        -3.135336        -1.779284        -0.537231
 C        -2.854578         0.234940        -2.383732
 O        -2.088511         1.454142        -2.625682
 C        -2.771493         2.598903        -2.171947
 O        -3.614592         2.573614        -1.291828
 H         1.883267        -0.105036         1.132347
 H         1.556909         1.324763         0.127494
 H         1.010191         1.091894         1.741342
 H        -3.321611         0.337368        -0.219545
 H        -4.031297        -1.676941         0.062100
 H        -3.258949        -2.217778        -1.519752
 H        -2.393083        -2.327479         0.094641
 H        -2.456672        -0.527589        -3.054970
 H        -3.903638         0.399093        -2.595499
 H        -2.151684         3.559482        -2.603848
