19
Iteration:   978
 C         1.349043         0.058547         0.896405
 C         0.024760         0.099626         0.237014
 C        -1.132132         0.089708        -0.076319
 C        -2.473962         0.084403        -0.611472
 C        -3.117569        -1.451344        -0.447492
 C        -2.745706         0.151797        -2.090305
 O        -2.276697         1.475383        -2.558381
 C        -3.068373         2.593666        -2.369600
 O        -4.156022         2.677705        -1.861001
 H         1.736233        -0.950782         0.956784
 H         2.166355         0.818915         0.711672
 H         1.034589         0.188589         2.092899
 H        -3.104316         0.804867        -0.026164
 H        -3.909970        -1.712128         0.270346
 H        -3.591331        -1.792991        -1.376702
 H        -2.291107        -2.138041        -0.347564
 H        -2.169503        -0.494415        -2.785006
 H        -3.871066         0.123249        -2.281541
 H        -2.332067         3.422145        -2.597796
