19
Iteration:  4335
 C         1.375954        -0.540404         1.020849
 C         0.034324        -0.260379         0.626405
 C        -1.113451        -0.216808         0.229300
 C        -2.359288        -0.091058        -0.473078
 C        -2.711133        -1.382954        -1.456819
 C        -2.268222         1.163142        -1.319733
 O        -3.497248         2.075285        -1.224284
 C        -3.758148         2.559635        -2.458249
 O        -3.345582         2.296911        -3.583007
 H         2.208315         0.145207         0.618905
 H         1.334760        -0.484397         2.106234
 H         1.733987        -1.578037         0.722934
 H        -3.124365         0.043905         0.272889
 H        -3.761741        -1.751832        -1.203860
 H        -2.469427        -0.946440        -2.440498
 H        -2.036111        -2.184771        -1.181616
 H        -1.578243         1.797565        -0.898007
 H        -2.137587         0.985225        -2.401794
 H        -4.329102         3.474585        -2.333277
