19
Iteration:  4945charge 0 multiplicity 1
 C         1.231033         0.224422         1.194282
 C         0.178459        -0.195998         0.233618
 C        -1.039868        -0.262820        -0.120078
 C        -2.332929        -0.138395        -0.776839
 C        -3.549194        -1.125185        -0.755090
 C        -2.159137         0.527808        -2.210733
 O        -3.357421         1.063284        -2.623756
 C        -3.620846         2.391484        -2.315294
 O        -2.876017         3.025955        -1.562328
 H         2.295397        -0.044152         0.994509
 H         1.089658         1.252624         1.419641
 H         0.794981        -0.168303         2.160672
 H        -2.824182         0.830318        -0.380742
 H        -4.474921        -0.539163        -0.628343
 H        -3.547448        -1.744281        -1.747727
 H        -3.439490        -1.825728         0.119809
 H        -1.482714         1.427454        -1.950803
 H        -1.707539        -0.166010        -2.966965
 H        -4.667451         2.703973        -2.670142
