19
Iteration:  1564charge 0 multiplicity 1
 C         1.329541        -0.009775         0.899502
 C        -0.117301        -0.039983         0.512957
 C        -1.158392         0.022225        -0.096116
 C        -2.451770        -0.032832        -0.632226
 C        -3.106980        -1.569463        -0.436931
 C        -2.452274         0.455391        -2.097365
 O        -2.157618         1.887138        -2.190999
 C        -3.178238         2.668770        -2.323266
 O        -4.334619         2.311208        -2.425883
 H         1.632522         1.053136         0.938349
 H         1.325105        -0.397047         1.903664
 H         1.948204        -0.651440         0.232230
 H        -3.120071         0.741095        -0.115862
 H        -3.766456        -1.451027         0.400936
 H        -3.442470        -1.950944        -1.429760
 H        -2.324645        -2.285000        -0.051690
 H        -1.625845        -0.062324        -2.654562
 H        -3.419362         0.253856        -2.574768
 H        -2.934319         3.874476        -2.332295
