19
Iteration:    58charge 0 multiplicity 1
 C         1.265746         0.450263        -0.702430
 C        -0.199658         0.224806        -0.346531
 C        -1.387795         0.275996        -0.146821
 C        -2.855126        -0.029850         0.043479
 C        -3.144951        -1.525835         0.255377
 C        -3.709129         0.328785        -1.201803
 O        -3.306850         1.949280        -1.289513
 C        -2.497356         2.332585        -2.278551
 O        -1.945082         1.787556        -3.176261
 H         1.487059         1.404589        -0.876598
 H         1.889270         0.077748         0.250629
 H         1.486944        -0.245171        -1.616076
 H        -3.261903         0.558861         0.833363
 H        -2.377443        -2.099048         0.803738
 H        -4.115838        -1.608055         0.808903
 H        -3.252512        -1.988518        -0.755585
 H        -3.473344        -0.186576        -2.118810
 H        -4.802874         0.361556        -0.898492
 H        -2.397104         3.473282        -2.084506
