19
Iteration:    36charge 0 multiplicity 1
 C         1.203645         0.397386        -0.596277
 C        -0.148720         0.176775        -0.221214
 C        -1.385114         0.139260        -0.108596
 C        -2.787717        -0.079462         0.004929
 C        -3.067103        -1.601248         0.286689
 C        -3.565947         0.617376        -1.187802
 O        -3.401575         1.957945        -1.417769
 C        -2.480723         2.346882        -2.302671
 O        -2.129673         1.820909        -3.283740
 H         1.464989         1.362499        -0.513581
 H         1.960848        -0.158702         0.168769
 H         1.360933         0.123135        -1.746301
 H        -3.131479         0.364223         0.915205
 H        -2.204131        -1.993164         0.849988
 H        -3.941548        -1.665528         0.984646
 H        -3.207053        -2.258301        -0.604135
 H        -3.324722         0.091253        -2.096252
 H        -4.653234         0.494615        -0.883267
 H        -2.242874         3.434015        -1.993474
