19
Iteration:   829
 C         1.470127        -0.147419         0.571222
 C        -0.016213        -0.054984         0.465160
 C        -1.039157        -0.097670        -0.148908
 C        -2.458588        -0.040880        -0.393303
 C        -3.282946        -1.303722        -0.234692
 C        -2.552229         0.477679        -1.851406
 O        -2.155635         1.884190        -2.031776
 C        -3.213650         2.640383        -2.623472
 O        -4.373233         2.321837        -2.536738
 H         1.890603         0.990005         0.615839
 H         1.796145        -0.500014         1.591987
 H         2.017387        -0.707611        -0.069792
 H        -2.844927         0.719174         0.262808
 H        -3.542671        -1.551615         0.840888
 H        -4.263014        -1.425759        -0.809215
 H        -2.682088        -2.258905        -0.540200
 H        -1.827995        -0.077682        -2.473097
 H        -3.525760         0.394384        -2.361521
 H        -2.673090         3.670450        -3.009289
