19
Iteration:  4733
 C         1.499062        -0.544476         1.102273
 C         0.140319        -0.464540         0.554413
 C        -0.962184        -0.159008         0.208183
 C        -2.228319         0.126668        -0.482889
 C        -3.321942        -1.101549        -0.746474
 C        -1.969529         0.968561        -1.825632
 O        -3.266868         1.044978        -2.419808
 C        -3.877997         2.262009        -2.677676
 O        -3.561347         3.426392        -2.404050
 H         1.787177         0.387688         1.540105
 H         1.833857        -1.461090         1.635683
 H         2.096323        -0.643984         0.226476
 H        -2.765631         0.877031         0.170738
 H        -4.180021        -0.707477        -1.398780
 H        -2.721164        -1.876695        -1.161523
 H        -3.680286        -1.360944         0.274759
 H        -1.720975         1.937953        -1.576056
 H        -1.232950         0.427331        -2.406490
 H        -4.753637         2.057022        -3.345339
