19
Iteration:  2088charge 0 multiplicity 1
 C         1.183279         0.855687         0.052635
 C        -0.199945         0.437873        -0.021080
 C        -1.324749        -0.014145        -0.314899
 C        -2.783185        -0.385346        -0.339735
 C        -2.972667        -1.894961        -0.760540
 C        -3.559498         0.470653        -1.424064
 O        -3.636677         1.903247        -1.318789
 C        -2.553321         2.501809        -1.952139
 O        -1.920895         1.904928        -2.806414
 H         1.598605         0.450338        -0.848307
 H         1.353684         1.896567         0.221757
 H         1.759129         0.454024         1.009793
 H        -3.296637        -0.179802         0.647655
 H        -2.028563        -2.204024        -1.142361
 H        -3.241600        -2.447880         0.146856
 H        -3.789808        -2.089868        -1.461867
 H        -3.323729         0.101075        -2.396380
 H        -4.606459         0.226612        -1.175965
 H        -2.182357         3.424257        -1.502226
