19
Iteration:   721charge 0 multiplicity 1
 C         1.551540        -0.318175         0.578019
 C         0.074401         0.014862         0.387627
 C        -1.085413         0.047630         0.003416
 C        -2.451729        -0.046310        -0.433938
 C        -3.015671        -1.435148        -0.063297
 C        -2.834572         0.495562        -1.846760
 O        -2.398957         1.882206        -1.836902
 C        -3.150942         2.685867        -2.573926
 O        -4.265745         2.403278        -3.011367
 H         1.583675        -0.776336         1.669062
 H         2.036463        -1.014127        -0.112551
 H         2.085689         0.654613         0.690733
 H        -2.977760         0.580742         0.312023
 H        -2.420286        -1.852060         0.752057
 H        -3.957278        -1.185026         0.338131
 H        -2.956123        -2.211622        -0.829081
 H        -2.362313         0.009630        -2.671957
 H        -3.894914         0.494074        -1.972476
 H        -2.784523         3.638031        -2.862994
