19
Iteration:  3314
 C         1.063575         0.373790         1.002745
 C        -0.183436         0.097421         0.400706
 C        -1.210246        -0.405273        -0.071686
 C        -2.549797        -0.538658        -0.609649
 C        -3.009857        -1.994621        -0.706654
 C        -2.720227         0.363034        -1.943459
 O        -2.404944         1.734899        -1.642634
 C        -2.910921         2.916711        -2.174921
 O        -3.753094         3.024070        -3.043945
 H         1.291040         1.502942         0.827465
 H         1.093380         0.088855         1.987463
 H         1.792492        -0.274844         0.456214
 H        -3.099657         0.122115         0.108405
 H        -4.067856        -2.195421        -0.721083
 H        -2.572677        -2.545139        -1.551595
 H        -2.812514        -2.550308         0.213695
 H        -1.977012         0.130692        -2.648802
 H        -3.741159         0.305306        -2.359457
 H        -2.344652         3.767542        -1.730154
