19
Iteration:   790
 C         1.456846        -0.255387         0.596575
 C         0.112406        -0.172873         0.154084
 C        -1.123490         0.006073         0.236495
 C        -2.470693        -0.013542        -0.389767
 C        -3.083423        -1.314605        -0.106634
 C        -2.610571         0.408213        -1.907224
 O        -2.234755         1.852487        -2.083754
 C        -3.259642         2.694714        -2.445624
 O        -4.364994         2.428254        -2.828142
 H         1.410954         0.600982         1.246350
 H         1.657693        -1.003189         1.339286
 H         2.280886         0.203658        -0.127995
 H        -3.124172         0.792462         0.100041
 H        -3.396102        -1.509256         0.893630
 H        -3.948978        -1.309935        -0.758850
 H        -2.303827        -2.010998        -0.293297
 H        -1.938296        -0.181015        -2.562116
 H        -3.642731         0.215029        -2.178786
 H        -2.885192         3.708115        -2.369240
