19
Iteration:  1716
 C         1.448658        -0.093386         0.907148
 C         0.089845        -0.113556         0.347614
 C        -1.102558        -0.133615         0.099536
 C        -2.421047        -0.190748        -0.389743
 C        -2.904384        -1.587339        -0.410774
 C        -2.676389         0.570323        -1.794788
 O        -2.534946         1.978671        -1.687658
 C        -3.361960         2.721124        -2.398707
 O        -4.099319         2.498111        -3.373698
 H         1.851489        -0.956531         0.340195
 H         2.063519         0.791754         0.751441
 H         1.473449        -0.420123         2.049443
 H        -3.069502         0.431975         0.187962
 H        -3.913766        -1.556346        -0.919125
 H        -2.169290        -2.054618        -1.098809
 H        -3.172485        -1.986305         0.595914
 H        -2.002377         0.239377        -2.657189
 H        -3.730882         0.329065        -2.065687
 H        -3.276567         3.718182        -2.172607
