19
Iteration:  1243charge 0 multiplicity 1
 C         0.827984         0.853194         0.411326
 C        -0.468040         0.388126         0.206199
 C        -1.441924        -0.204145        -0.209459
 C        -2.778670        -0.446738        -0.712154
 C        -3.158489        -1.863914        -0.597904
 C        -2.881848         0.219471        -2.150795
 O        -1.962075         1.424945        -2.391417
 C        -2.423112         2.582829        -1.967831
 O        -3.500183         2.699070        -1.453903
 H         1.064216         1.116404        -0.585084
 H         0.749786         1.751741         1.029054
 H         1.559606         0.148938         0.877932
 H        -3.500599         0.085576        -0.051114
 H        -2.429686        -2.382375        -1.298763
 H        -2.935051        -2.248927         0.381546
 H        -4.174173        -2.184835        -0.881028
 H        -2.513759        -0.481915        -2.935685
 H        -3.902592         0.635784        -2.360080
 H        -1.829850         3.453272        -2.012835
