19
Iteration:  1782
 C         1.427049        -0.110483         0.906474
 C         0.097284        -0.058527         0.296075
 C        -1.053859         0.011845        -0.092273
 C        -2.516945        -0.113279        -0.330460
 C        -2.768410        -1.620058        -0.518682
 C        -3.035461         0.514344        -1.722321
 O        -2.778571         1.955766        -1.474499
 C        -3.183197         2.784106        -2.442979
 O        -3.767967         2.372569        -3.423473
 H         1.439432        -1.102411         1.357500
 H         2.150591         0.158504         0.147552
 H         1.532797         0.525057         1.871600
 H        -3.092041         0.270833         0.492917
 H        -2.936988        -2.217588         0.450119
 H        -3.700239        -1.692840        -1.120043
 H        -1.933110        -2.107275        -1.101928
 H        -2.598509         0.111617        -2.709107
 H        -4.137507         0.378869        -1.687514
 H        -2.803764         3.766017        -2.131770
