19
Iteration:  1591charge 0 multiplicity 1
 C         1.382778        -0.021579         0.888396
 C        -0.030060        -0.125512         0.329917
 C        -1.216730        -0.034798         0.125723
 C        -2.487630         0.004892        -0.515920
 C        -3.123550        -1.435878        -0.545104
 C        -2.392250         0.432109        -2.015483
 O        -2.165865         1.867985        -2.076856
 C        -3.246109         2.655985        -2.316080
 O        -4.358394         2.308272        -2.627359
 H         1.741297         0.967017         0.516770
 H         1.252014         0.120056         1.996896
 H         2.105286        -0.790118         0.610433
 H        -3.124117         0.782160        -0.097461
 H        -3.008450        -1.856049         0.493379
 H        -4.071831        -1.428176        -1.117600
 H        -2.332441        -1.903681        -1.116473
 H        -1.586848        -0.078737        -2.505678
 H        -3.365021         0.257257        -2.492398
 H        -3.089459         3.633437        -2.073596
