19
Iteration:  2144charge 0 multiplicity 1
 C         0.984633         0.816137        -0.128994
 C        -0.370751         0.478176        -0.205204
 C        -1.554471         0.194806        -0.212398
 C        -2.874891        -0.408594        -0.273387
 C        -2.741732        -1.886087        -0.833164
 C        -3.724123         0.438091        -1.428212
 O        -3.478811         1.878690        -1.255366
 C        -2.426290         2.471604        -1.920746
 O        -1.691438         1.822201        -2.594560
 H         1.783340         0.056231        -0.168542
 H         1.272450         1.534630        -0.864763
 H         1.032617         1.212384         0.989944
 H        -3.411223        -0.394014         0.719913
 H        -2.813211        -2.035462        -1.913277
 H        -1.779069        -2.297269        -0.583926
 H        -3.501547        -2.488828        -0.368056
 H        -3.416037         0.069850        -2.384089
 H        -4.834030         0.474484        -1.411638
 H        -2.310436         3.622609        -1.999125
