19
Iteration:  4607
 C         1.403880        -0.936621         0.839769
 C         0.150254        -0.304147         0.625434
 C        -1.011733         0.051967         0.388994
 C        -2.306291         0.143385        -0.224906
 C        -2.774806        -1.172194        -0.843838
 C        -2.284377         1.261173        -1.363743
 O        -3.549307         1.127558        -2.114356
 C        -3.843024         2.210003        -2.982164
 O        -3.363566         3.302026        -2.903698
 H         1.523543        -1.663554         1.640385
 H         1.564530        -1.480810        -0.052104
 H         2.214945        -0.167916         0.908392
 H        -3.187472         0.436655         0.399476
 H        -3.815284        -1.191916        -0.777492
 H        -2.469831        -1.087749        -1.897793
 H        -2.233417        -1.933073        -0.351568
 H        -2.039857         2.282646        -0.977489
 H        -1.370739         1.107973        -2.002867
 H        -4.829251         2.020978        -3.509224
