19
Iteration:  4834
 C         1.182625        -0.373608         1.144940
 C         0.035503         0.078959         0.366835
 C        -1.060840         0.092566        -0.041104
 C        -2.404709         0.195961        -0.654363
 C        -3.065802        -1.142731        -0.562008
 C        -2.231974         0.500187        -2.176229
 O        -3.344620         1.102478        -2.801059
 C        -3.690732         2.325753        -2.433107
 O        -3.068094         3.010412        -1.640718
 H         2.063676         0.136902         0.883418
 H         1.102873        -0.294332         2.236746
 H         1.363144        -1.423763         0.808357
 H        -2.905705         1.081232        -0.186725
 H        -3.792876        -1.214737        -1.325280
 H        -2.198181        -1.854360        -0.866344
 H        -3.313824        -1.585695         0.418416
 H        -1.421520         1.184268        -2.356935
 H        -2.237913        -0.424937        -2.753120
 H        -4.451545         2.698940        -3.157940
