19
Iteration:  2135charge 0 multiplicity 1
 C         1.055550         0.834017        -0.058129
 C        -0.362287         0.400948        -0.223517
 C        -1.586881         0.263531        -0.221531
 C        -2.852175        -0.371019        -0.395682
 C        -2.775061        -1.887525        -0.811483
 C        -3.738213         0.439063        -1.399591
 O        -3.467531         1.882837        -1.226411
 C        -2.472238         2.417311        -1.909700
 O        -1.681384         1.812283        -2.611454
 H         1.678225        -0.017446        -0.449808
 H         1.311687         1.787727        -0.623829
 H         1.325609         1.270554         0.938331
 H        -3.329290        -0.297012         0.627923
 H        -2.629738        -1.847653        -1.915311
 H        -1.938385        -2.404726        -0.363893
 H        -3.660230        -2.404860        -0.462115
 H        -3.328394         0.129774        -2.397574
 H        -4.835021         0.264281        -1.316750
 H        -2.628070         3.458618        -2.003113
