19
Iteration:  1862charge 0 multiplicity 1
 C         1.425954         0.153433         0.630688
 C         0.008528         0.006307         0.328237
 C        -1.196076        -0.013405         0.105782
 C        -2.545821        -0.256852        -0.383337
 C        -2.930405        -1.690081        -0.664652
 C        -3.087118         0.552617        -1.557249
 O        -2.951694         1.947007        -1.297419
 C        -3.005586         2.697252        -2.390461
 O        -3.342971         2.312352        -3.474049
 H         1.649365        -0.005336         1.739439
 H         2.043371        -0.715526         0.136486
 H         1.610895         1.091552         0.202484
 H        -3.185093         0.027610         0.462797
 H        -2.566463        -1.859727        -1.710004
 H        -2.566388        -2.375821         0.138220
 H        -4.054685        -1.693807        -0.762507
 H        -2.555359         0.324701        -2.450988
 H        -4.128680         0.208638        -1.717542
 H        -2.785494         3.690975        -2.157435
