19
Iteration:  3771
 C         1.519005        -0.976822         0.947686
 C         0.259400        -0.478330         0.386670
 C        -0.797327        -0.115437        -0.134814
 C        -2.235918         0.260077        -0.317994
 C        -3.083467        -0.880277        -0.976826
 C        -2.334289         1.722863        -0.934496
 O        -3.765929         1.754719        -1.478907
 C        -3.969543         1.952143        -2.763814
 O        -3.107067         2.418174        -3.490229
 H         2.042490        -0.266349         1.550757
 H         1.365187        -1.864745         1.664053
 H         2.303303        -1.318395         0.129677
 H        -2.647032         0.450176         0.713062
 H        -4.117570        -1.102520        -0.579958
 H        -3.326365        -0.447525        -1.930518
 H        -2.360554        -1.679662        -1.128373
 H        -2.127507         2.420048        -0.208735
 H        -1.692304         1.925400        -1.817421
 H        -5.000966         1.532890        -3.011247
