19
Iteration:  1548charge 0 multiplicity 1
 C         1.266404        -0.027922         0.980424
 C        -0.079061         0.075314         0.541965
 C        -1.097668         0.083355        -0.101481
 C        -2.467181        -0.161747        -0.728950
 C        -3.087557        -1.521102        -0.422331
 C        -2.484935         0.374391        -2.199675
 O        -2.120623         1.827186        -2.218076
 C        -3.175564         2.710782        -2.369932
 O        -4.366435         2.363094        -2.264289
 H         1.797378         0.904820         1.201111
 H         1.570405        -0.683826         1.845989
 H         1.840783        -0.344627         0.067856
 H        -3.202725         0.450628        -0.256030
 H        -4.184279        -1.377265        -0.122705
 H        -3.154348        -2.073298        -1.382468
 H        -2.486257        -1.971094         0.347931
 H        -1.767163        -0.141042        -2.836834
 H        -3.513210         0.327459        -2.626656
 H        -2.827537         3.699431        -2.549385
