19
Iteration:  4377charge 0 multiplicity 1
 C         1.401845        -0.240998         1.016427
 C        -0.018969        -0.468385         0.609073
 C        -1.157088        -0.442476         0.200703
 C        -2.421176        -0.150700        -0.504226
 C        -2.812550        -1.417170        -1.315985
 C        -2.109200         1.176994        -1.253457
 O        -3.373138         1.962198        -1.261651
 C        -3.809848         2.560599        -2.501936
 O        -3.336815         2.544640        -3.608876
 H         1.852892         0.006321         0.079988
 H         1.463055         0.492659         1.761969
 H         2.027781        -1.175627         1.300004
 H        -3.253920         0.120232         0.129986
 H        -3.958559        -1.533510        -1.272645
 H        -2.768180        -1.399118        -2.355860
 H        -2.434280        -2.405017        -1.099375
 H        -1.337960         1.677565        -0.726009
 H        -1.667039         0.991387        -2.296364
 H        -4.678877         3.130727        -2.232202
