19
Iteration:  4696charge 0 multiplicity 1
 C         1.436944        -0.682566         1.088620
 C         0.260584        -0.350594         0.471054
 C        -0.876700        -0.336404         0.001296
 C        -2.223082         0.142955        -0.309136
 C        -3.175716        -1.032697        -0.713901
 C        -2.164888         1.114656        -1.492750
 O        -3.292102         1.052222        -2.385110
 C        -3.944160         2.256964        -2.806745
 O        -3.538426         3.412984        -2.604256
 H         1.654245        -0.185090         2.100464
 H         1.522904        -1.714676         1.334552
 H         2.195589        -0.254133         0.414336
 H        -2.582812         0.670957         0.633080
 H        -3.743291        -0.854841        -1.591860
 H        -2.773494        -2.070363        -0.918797
 H        -3.892970        -1.302298         0.075315
 H        -2.046102         2.225744        -1.063887
 H        -1.268982         1.021025        -2.143389
 H        -4.765723         1.904651        -3.519045
