19
Iteration:  1553
 C         1.267173        -0.046632         0.952678
 C        -0.079953         0.048559         0.548048
 C        -1.121243         0.088986        -0.113578
 C        -2.458682        -0.161900        -0.699685
 C        -3.115587        -1.513202        -0.414225
 C        -2.458854         0.398884        -2.163327
 O        -2.131098         1.845619        -2.204837
 C        -3.212848         2.741603        -2.383607
 O        -4.341038         2.324004        -2.310684
 H         1.638665         0.998555         1.054277
 H         1.582358        -0.547640         1.845532
 H         1.915386        -0.418282         0.112109
 H        -3.071691         0.614030        -0.113349
 H        -4.098842        -1.614154        -0.004842
 H        -3.310587        -2.134321        -1.318142
 H        -2.332726        -2.097957         0.153143
 H        -1.722766        -0.015623        -2.898807
 H        -3.486053         0.242926        -2.528363
 H        -2.628928         3.814777        -2.399677
