19
Iteration:   444charge 0 multiplicity 1
 C         1.480507         0.106010        -0.009700
 C         0.000517         0.127832        -0.180329
 C        -1.199682         0.005898        -0.107008
 C        -2.673159        -0.181502        -0.002466
 C        -3.190189        -1.670353         0.022186
 C        -3.269583         0.633102        -1.216947
 O        -2.871138         2.072171        -1.264302
 C        -2.897105         2.635351        -2.513416
 O        -3.075092         2.014579        -3.521457
 H         1.879575         1.132005         0.155118
 H         1.676126        -0.731818         0.650628
 H         2.102376        -0.299181        -0.805318
 H        -3.039678         0.337101         0.968400
 H        -2.916864        -2.245179         0.907776
 H        -4.295670        -1.661243        -0.141530
 H        -2.704239        -2.119528        -0.843839
 H        -2.846545         0.179666        -2.132559
 H        -4.371900         0.644197        -1.229193
 H        -2.569581         3.729676        -2.507888
