19
Iteration:  3249
 C         1.056626         0.579176         0.898436
 C        -0.152794        -0.008269         0.269365
 C        -1.237829        -0.426420        -0.056684
 C        -2.594929        -0.395778        -0.603711
 C        -3.265129        -1.748045        -0.967205
 C        -2.723730         0.400959        -1.836826
 O        -2.230045         1.804887        -1.456697
 C        -2.930273         2.755414        -2.020330
 O        -3.596331         2.561777        -3.010247
 H         0.684891         1.517797         1.403397
 H         1.724523         0.009807         1.547745
 H         1.748090         0.907416         0.053522
 H        -3.213592         0.014800         0.192868
 H        -4.205646        -1.553034        -1.536023
 H        -2.449918        -2.184895        -1.582991
 H        -3.369310        -2.372127        -0.058478
 H        -2.251059        -0.097819        -2.643560
 H        -3.765030         0.542410        -2.190122
 H        -2.707807         3.687905        -1.540051
