19
Iteration:  4517charge 0 multiplicity 1
 C         1.565247        -0.593313         1.021414
 C         0.218772        -0.480243         0.495866
 C        -0.960561        -0.157071         0.170157
 C        -2.370668        -0.070656        -0.377595
 C        -2.785364        -1.347819        -0.983633
 C        -2.450221         1.212268        -1.274865
 O        -3.867944         1.587122        -1.672258
 C        -3.925383         2.423975        -2.765005
 O        -3.012089         3.008777        -3.298342
 H         1.720874        -1.616036         1.065451
 H         2.311444        -0.051788         0.430011
 H         1.743689        -0.234531         2.085976
 H        -2.999407         0.072395         0.546372
 H        -3.689699        -1.082415        -1.607145
 H        -2.060340        -1.682295        -1.639686
 H        -2.955672        -2.104458        -0.201851
 H        -1.992047         2.113478        -0.899017
 H        -1.729515         1.091433        -2.173209
 H        -5.012044         2.352209        -3.154791
