19
Iteration:  4162
 C         1.229196        -1.175990         1.096293
 C         0.255654        -0.347316         0.499324
 C        -0.826515         0.096851         0.121972
 C        -2.099519         0.271632        -0.427723
 C        -2.466926        -0.994206        -1.229052
 C        -2.286359         1.565646        -1.177142
 O        -3.699177         1.997531        -1.339371
 C        -4.122439         2.250484        -2.630469
 O        -3.466851         2.087834        -3.632429
 H         0.830310        -1.413306         2.185330
 H         1.191496        -2.169080         0.490911
 H         2.217837        -0.764147         1.174569
 H        -2.759078         0.179461         0.479128
 H        -1.672691        -1.051818        -2.006673
 H        -2.295264        -1.804084        -0.492944
 H        -3.533781        -0.953098        -1.424939
 H        -1.866708         2.464562        -0.705747
 H        -1.787134         1.563688        -2.215468
 H        -5.110362         2.807244        -2.618158
