19
Iteration:   893
 C         1.399647        -0.019914         0.762970
 C        -0.000421        -0.189126         0.255320
 C        -1.134297         0.076326        -0.097709
 C        -2.490634         0.002609        -0.457881
 C        -3.218308        -1.293122        -0.256558
 C        -2.464949         0.301509        -2.072809
 O        -2.157623         1.645357        -2.314762
 C        -3.166237         2.635075        -2.233914
 O        -4.376188         2.497349        -2.388676
 H         1.854481         0.324371        -0.107139
 H         1.406362         0.845957         1.467937
 H         1.936099        -0.870932         1.213636
 H        -2.891579         0.853923         0.179509
 H        -2.787255        -1.833921         0.593548
 H        -4.273160        -1.016016        -0.114040
 H        -3.241064        -1.773869        -1.260567
 H        -1.577266        -0.313970        -2.319869
 H        -3.384999        -0.121012        -2.558970
 H        -2.826588         3.686735        -2.272135
