19
Iteration:   486
 C         1.565921         0.120931        -0.004519
 C         0.049256        -0.089156         0.031504
 C        -1.162756        -0.107477        -0.019164
 C        -2.705762        -0.001471        -0.014556
 C        -3.179830        -1.498699        -0.041736
 C        -3.144048         0.508149        -1.407327
 O        -2.849737         1.975626        -1.339127
 C        -2.935340         2.639104        -2.464108
 O        -3.313051         2.146213        -3.513704
 H         1.965548         1.114494        -0.551045
 H         1.955640        -0.035904         1.028522
 H         2.057655        -0.613859        -0.554060
 H        -3.110193         0.685784         0.785950
 H        -3.416881        -1.877491         0.957111
 H        -4.126285        -1.694441        -0.558608
 H        -2.330856        -2.107990        -0.307938
 H        -2.608622        -0.094950        -2.180363
 H        -4.207946         0.294209        -1.396383
 H        -2.640782         3.751210        -2.182834
