19
Iteration:  3213
 C         1.139371         0.458459         0.784292
 C        -0.236889         0.086178         0.447853
 C        -1.289891        -0.399368         0.063648
 C        -2.621388        -0.557001        -0.504180
 C        -3.173302        -1.857708        -1.071151
 C        -2.685929         0.449997        -1.697544
 O        -2.304510         1.952777        -1.440289
 C        -2.852128         2.843843        -2.201224
 O        -3.675901         2.574969        -3.040541
 H         1.257140         1.244659         1.644776
 H         1.789749        -0.355638         0.891686
 H         1.222745         1.095945        -0.179079
 H        -3.214883        -0.202582         0.381704
 H        -3.992767        -1.762751        -1.758983
 H        -2.495396        -2.457879        -1.701617
 H        -3.528493        -2.583914        -0.366127
 H        -1.951308         0.272669        -2.454778
 H        -3.740281         0.462381        -1.957583
 H        -2.230432         3.782945        -2.285453
