19
Iteration:  4067charge 0 multiplicity 1
 C         1.448054        -0.625800         0.958481
 C         0.095596        -0.548114         0.510101
 C        -0.992133        -0.258489         0.101614
 C        -2.311835         0.158747        -0.440050
 C        -2.984849        -0.790040        -1.338068
 C        -2.116418         1.513868        -1.071703
 O        -3.437936         2.103600        -1.258900
 C        -3.901974         2.031220        -2.527693
 O        -3.387622         1.944131        -3.625388
 H         1.702393        -1.610043         1.193886
 H         2.179966        -0.369534         0.126833
 H         1.712234        -0.068934         1.937185
 H        -2.902958         0.389772         0.458736
 H        -3.040032        -1.697026        -0.789655
 H        -3.939749        -0.239719        -1.620499
 H        -2.417207        -0.755102        -2.256437
 H        -1.513706         2.178515        -0.398685
 H        -1.682218         1.579629        -2.053221
 H        -4.966189         2.262206        -2.400087
