19
Iteration:   869charge 0 multiplicity 1
 C         1.564658        -0.053347         0.672213
 C         0.129244        -0.054817         0.343013
 C        -1.091336        -0.045933         0.120460
 C        -2.499082         0.018376        -0.435481
 C        -3.368677        -1.304167        -0.357544
 C        -2.537903         0.347577        -2.019335
 O        -2.193995         1.723123        -2.273221
 C        -3.176337         2.649143        -2.380590
 O        -4.367113         2.414477        -2.456218
 H         2.110886         0.639504         0.120123
 H         1.497456         0.256146         1.742657
 H         1.997747        -1.154621         0.759335
 H        -3.008523         0.860655         0.140719
 H        -3.038029        -1.787916         0.549012
 H        -4.435655        -1.093094        -0.363223
 H        -3.217357        -1.834120        -1.275093
 H        -1.833420        -0.323654        -2.570441
 H        -3.619988         0.128119        -2.264555
 H        -2.945930         3.653241        -2.120074
