19
Iteration:  1423charge 0 multiplicity 1
 C         1.101576         0.283731         1.116915
 C        -0.103281         0.241374         0.361053
 C        -1.126960         0.072611        -0.254257
 C        -2.507356        -0.145090        -0.860372
 C        -3.129917        -1.585564        -0.494404
 C        -2.687596         0.167719        -2.377265
 O        -2.342257         1.541049        -2.763939
 C        -2.954953         2.564694        -2.221856
 O        -3.888872         2.588957        -1.445419
 H         0.963584        -0.147529         2.163248
 H         2.061757        -0.194041         0.841036
 H         1.466227         1.293571         1.437242
 H        -3.276571         0.564315        -0.448722
 H        -2.337534        -2.253798        -0.118157
 H        -3.983461        -1.239511         0.158766
 H        -3.452666        -2.047212        -1.498632
 H        -1.962624        -0.396820        -2.968562
 H        -3.691035        -0.040510        -2.714510
 H        -2.405708         3.418204        -2.370068
