19
Iteration:  2076charge 0 multiplicity 1
 C         1.196820         0.832334         0.063172
 C        -0.204967         0.402494        -0.023859
 C        -1.338518         0.000244        -0.207941
 C        -2.672160        -0.373199        -0.371463
 C        -3.013262        -1.911931        -0.721029
 C        -3.605966         0.416705        -1.414416
 O        -3.601229         1.922529        -1.280975
 C        -2.568838         2.458303        -1.988613
 O        -1.940838         2.005291        -2.912479
 H         1.915295         0.832087        -0.742495
 H         1.161439         1.857260         0.338596
 H         1.606486         0.109784         0.898608
 H        -3.020541        -0.247611         0.690815
 H        -2.210397        -2.578453        -1.002203
 H        -3.466440        -2.401756         0.158347
 H        -3.733789        -1.903522        -1.556890
 H        -3.133309         0.305149        -2.384374
 H        -4.616404         0.025525        -1.427923
 H        -2.544272         3.480794        -1.530178
