19
Iteration:   225charge 0 multiplicity 1
 C         1.145090         0.481822        -0.948589
 C        -0.307302         0.433720        -0.410157
 C        -1.485642         0.129902        -0.163521
 C        -2.933815        -0.035445         0.033533
 C        -3.302213        -1.534521         0.245329
 C        -3.503078         0.420852        -1.237034
 O        -3.203058         1.742798        -1.213741
 C        -2.501991         2.403463        -2.201920
 O        -1.774893         1.793061        -2.954300
 H         1.394815        -0.428796        -1.417196
 H         1.324061         1.297066        -1.816252
 H         1.758661         0.699239         0.049520
 H        -3.256824         0.445644         0.875881
 H        -2.428227        -1.931560         0.851789
 H        -4.186442        -1.538442         0.970104
 H        -3.457663        -2.193327        -0.662597
 H        -2.926563        -0.068319        -2.122228
 H        -4.606626         0.285106        -1.400869
 H        -2.484047         3.476094        -2.072259
