19
Iteration:  1094charge 0 multiplicity 1
 C         1.032860         0.527611         0.812018
 C        -0.161203         0.292620         0.058397
 C        -1.289700        -0.013124        -0.197458
 C        -2.677615        -0.070934        -0.689489
 C        -3.176570        -1.542925        -0.482550
 C        -2.764790         0.089500        -2.195598
 O        -2.265259         1.437218        -2.777182
 C        -2.674606         2.456181        -2.026447
 O        -3.699677         2.549144        -1.400168
 H         0.946728         0.839746         1.977301
 H         1.550967        -0.462254         0.748513
 H         1.691931         1.373217         0.309744
 H        -3.260335         0.763590        -0.299773
 H        -3.889889        -1.847656         0.329499
 H        -3.797459        -1.816976        -1.379919
 H        -2.245759        -2.123712        -0.430674
 H        -2.187496        -0.570907        -2.805021
 H        -3.806976         0.019331        -2.421346
 H        -2.232922         3.400623        -2.162701
