19
Iteration:  1299charge 0 multiplicity 1
 C         0.943793         0.804364         0.624468
 C        -0.320851         0.336038         0.149512
 C        -1.459333        -0.025537        -0.223214
 C        -2.799751        -0.284069        -0.707407
 C        -3.121610        -1.789373        -0.743521
 C        -2.790834         0.109894        -2.183622
 O        -2.158661         1.333569        -2.441378
 C        -2.516789         2.434638        -1.917991
 O        -3.572185         2.797316        -1.425005
 H         1.698508         0.249861         0.112008
 H         1.228197         1.821777         0.406752
 H         1.193786         0.450986         1.715865
 H        -3.548148         0.301246        -0.101937
 H        -3.823775        -1.977108        -1.609255
 H        -2.113772        -2.296729        -0.793190
 H        -3.592801        -2.116081         0.176207
 H        -2.173737        -0.633111        -2.732626
 H        -3.827250         0.128177        -2.628906
 H        -1.772691         3.174814        -2.271171
