19
Iteration:   358
 C         1.291488         0.224097        -0.244598
 C        -0.086103         0.260352        -0.307794
 C        -1.239374        -0.067321        -0.143455
 C        -2.646761        -0.092029        -0.011031
 C        -3.120106        -1.543165         0.037073
 C        -3.475966         0.597963        -1.126764
 O        -3.183279         2.027616        -1.237217
 C        -2.594630         2.450743        -2.356050
 O        -2.611556         1.907166        -3.445630
 H         1.619438         0.196958         0.743216
 H         1.697980        -0.738805        -0.736101
 H         1.699505         1.178218        -0.804697
 H        -2.886211         0.383930         0.919973
 H        -2.549100        -2.207366         0.700879
 H        -4.217331        -1.470302         0.354294
 H        -3.241727        -2.003809        -0.950866
 H        -3.312245         0.075935        -2.083542
 H        -4.556904         0.452349        -0.852224
 H        -2.280145         3.433840        -2.175786
