19
Iteration:  4892charge 0 multiplicity 1
 C         1.190669         0.014877         1.227614
 C        -0.077353        -0.119320         0.494250
 C        -1.006390        -0.197598        -0.234061
 C        -2.293651         0.043828        -0.893824
 C        -3.243094        -1.068638        -0.553571
 C        -2.134232         0.494579        -2.354872
 O        -3.433068         1.113299        -2.798869
 C        -3.693033         2.392766        -2.253337
 O        -2.919127         2.932550        -1.480233
 H         1.860628         0.213596         0.310684
 H         1.218037         0.892413         1.814954
 H         1.594464        -0.905942         1.731765
 H        -2.757675         0.901258        -0.475382
 H        -4.278817        -1.034989        -0.926250
 H        -2.914610        -2.108203        -0.665817
 H        -3.485184        -0.894736         0.504624
 H        -1.282750         1.181123        -2.802377
 H        -1.970271        -0.376283        -3.033628
 H        -4.484295         2.888790        -2.804857
