19
Iteration:  1683charge 0 multiplicity 1
 C         1.520175        -0.048211         0.901486
 C         0.058900        -0.240574         0.395278
 C        -1.102036         0.012811         0.066869
 C        -2.525619        -0.105427        -0.417822
 C        -3.069646        -1.506354        -0.523638
 C        -2.564259         0.555929        -1.832364
 O        -2.440597         1.958769        -1.761513
 C        -3.331428         2.723764        -2.377216
 O        -4.172103         2.340504        -3.172936
 H         2.127874        -0.468233         0.078075
 H         1.685998         1.016368         1.026227
 H         1.761985        -0.785941         1.777159
 H        -3.099838         0.496799         0.265057
 H        -3.165537        -1.642216        -1.607706
 H        -2.437898        -2.318799        -0.062554
 H        -4.020533        -1.693448         0.100674
 H        -1.587547         0.233528        -2.330986
 H        -3.450599         0.210438        -2.412240
 H        -3.076918         3.694364        -2.076690
