19
Iteration:  4762
 C         1.411549        -0.509220         1.022347
 C         0.009291        -0.374687         0.641979
 C        -1.039433        -0.149018         0.147996
 C        -2.321167         0.260414        -0.427147
 C        -3.092520        -1.158891        -0.596183
 C        -2.067279         0.802585        -1.960308
 O        -3.224514         1.093329        -2.691263
 C        -3.910587         2.340326        -2.600643
 O        -3.407566         3.334712        -2.198585
 H         1.769922         0.572801         1.250789
 H         1.631968        -1.162684         1.869983
 H         2.026337        -0.896317         0.156792
 H        -2.877721         0.968265         0.226783
 H        -4.174746        -1.099270        -0.957191
 H        -2.570958        -1.723441        -1.388585
 H        -2.883802        -1.835108         0.259069
 H        -1.504113         1.865822        -1.942698
 H        -1.532056        -0.041840        -2.472763
 H        -4.885095         2.200667        -3.137172
