19
Iteration:  4938charge 0 multiplicity 1
 C         1.220587         0.235900         1.224947
 C         0.152541        -0.205497         0.224518
 C        -0.981458        -0.234308        -0.146219
 C        -2.350275        -0.098156        -0.798279
 C        -3.523348        -1.092140        -0.774124
 C        -2.165236         0.475151        -2.135035
 O        -3.394039         1.121608        -2.669418
 C        -3.604085         2.332118        -2.256952
 O        -2.891884         2.990474        -1.575244
 H         2.320098        -0.029105         1.097242
 H         1.096144         1.303724         1.484695
 H         0.929526        -0.403094         2.064049
 H        -2.560616         0.788883        -0.251478
 H        -4.555595        -0.630387        -0.667790
 H        -3.577190        -1.723778        -1.580771
 H        -3.560963        -1.720109         0.088917
 H        -1.324792         1.260069        -2.159415
 H        -1.921829        -0.060891        -3.064826
 H        -4.466429         2.677107        -2.791317
