19
Iteration:   646
 C         1.660861        -0.159480         0.618363
 C         0.233724        -0.171557         0.255450
 C        -0.942644        -0.119504        -0.110037
 C        -2.479439        -0.055105        -0.282328
 C        -3.169707        -1.431553        -0.144726
 C        -3.092723         0.619167        -1.536048
 O        -2.466753         1.917042        -1.737082
 C        -3.136007         2.692503        -2.616182
 O        -4.122667         2.340437        -3.219798
 H         2.264646        -1.013285         0.538668
 H         2.061658         0.472889        -0.145102
 H         1.694235         0.285489         1.688824
 H        -2.885366         0.515762         0.632128
 H        -3.343986        -1.630815         0.925724
 H        -4.139988        -1.238831        -0.596995
 H        -2.624995        -2.269574        -0.640686
 H        -2.815861         0.006201        -2.410764
 H        -4.165230         0.751746        -1.605553
 H        -2.725991         3.734818        -2.938306
