19
Iteration:   392
 C         1.431059         0.189898        -0.141273
 C         0.056601        -0.027716        -0.082202
 C        -1.189908         0.185962        -0.162842
 C        -2.727562        -0.066644        -0.053925
 C        -3.121508        -1.623346         0.003813
 C        -3.580268         0.642143        -1.187665
 O        -3.084661         1.989023        -1.241143
 C        -2.612862         2.444324        -2.384941
 O        -2.834657         2.000442        -3.534062
 H         1.861915         0.827066         0.547854
 H         2.092071        -0.756345        -0.266282
 H         1.674425         0.823929        -1.187449
 H        -3.027470         0.295074         0.877151
 H        -2.416571        -2.359001         0.451666
 H        -3.968323        -1.626997         0.763115
 H        -3.364961        -2.046621        -0.982827
 H        -3.381492         0.151065        -2.119486
 H        -4.709520         0.731169        -0.965552
 H        -2.324265         3.418617        -2.247935
