19
Iteration:  2142
 C         1.004286         0.814683        -0.114098
 C        -0.381501         0.456690        -0.209409
 C        -1.555289         0.217078        -0.214821
 C        -2.862800        -0.399841        -0.292587
 C        -2.752095        -1.887520        -0.835888
 C        -3.736569         0.437129        -1.428126
 O        -3.471658         1.876417        -1.251154
 C        -2.436202         2.454598        -1.906861
 O        -1.695163         1.824095        -2.594481
 H         1.750434         0.067799        -0.265052
 H         1.308059         1.589762        -0.766379
 H         1.062562         1.262739         0.967179
 H        -3.371120        -0.363836         0.681450
 H        -2.732574        -1.989586        -1.906427
 H        -1.795008        -2.352698        -0.541876
 H        -3.546095        -2.472014        -0.337335
 H        -3.402636         0.061261        -2.351945
 H        -4.835464         0.451364        -1.421877
 H        -2.320249         3.640688        -2.113166
