19
Iteration:  2516
 C         1.218500         0.155754         0.728033
 C        -0.072645         0.159490         0.166649
 C        -1.190775         0.096285        -0.392238
 C        -2.585843        -0.371812        -0.537339
 C        -2.785902        -1.887568        -0.668015
 C        -3.440654         0.435291        -1.548128
 O        -3.376385         1.861946        -1.257269
 C        -2.952181         2.789006        -2.175727
 O        -2.507460         2.481752        -3.225698
 H         2.042189        -0.142714         0.105528
 H         1.541779         1.159763         0.526529
 H         1.317120        -0.010922         1.774869
 H        -2.958417        -0.008624         0.427433
 H        -3.458878        -2.265573         0.132711
 H        -3.233372        -2.287192        -1.632945
 H        -1.905703        -2.373229        -0.227550
 H        -3.174404         0.153518        -2.616523
 H        -4.477293         0.144949        -1.411114
 H        -3.045148         3.852282        -1.869800
