19
Iteration:  3011charge 0 multiplicity 1
 C         1.452155        -0.234088         1.091035
 C         0.078291        -0.269904         0.520039
 C        -0.957010        -0.256009        -0.109193
 C        -2.437334        -0.214084        -0.474924
 C        -2.968841        -1.622684        -0.983899
 C        -2.775279         0.773028        -1.646665
 O        -3.087767         2.154772        -1.278201
 C        -3.523582         2.822432        -2.351261
 O        -3.400299         2.437883        -3.490732
 H         2.165903        -1.027407         0.966205
 H         1.967885         0.787420         0.710731
 H         1.432824         0.024507         2.155158
 H        -2.921346        -0.073738         0.531400
 H        -4.017829        -1.802854        -0.835474
 H        -2.709097        -1.805434        -2.003012
 H        -2.525788        -2.419201        -0.465891
 H        -1.939840         0.805048        -2.370424
 H        -3.490928         0.366282        -2.393426
 H        -3.800782         3.917259        -2.170076
