19
Iteration:  4214
 C         1.332869        -1.131358         1.247255
 C         0.154165        -0.544166         0.661360
 C        -0.718616        -0.048717         0.028465
 C        -2.041492         0.345287        -0.425067
 C        -2.725261        -0.859242        -1.337003
 C        -2.107960         1.710082        -1.192670
 O        -3.649031         1.843412        -1.426835
 C        -4.175219         2.044486        -2.611131
 O        -3.523683         2.272197        -3.619507
 H         1.629124        -0.594122         2.168356
 H         1.243915        -2.172409         1.348276
 H         2.183325        -0.784604         0.714245
 H        -2.683012         0.360801         0.465668
 H        -2.972153        -0.153789        -2.180321
 H        -2.067741        -1.633834        -1.597970
 H        -3.638121        -1.043114        -0.770210
 H        -1.946492         2.598970        -0.719064
 H        -1.563927         1.767862        -2.163303
 H        -5.285953         1.829698        -2.622610
