19
Iteration:  4559charge 0 multiplicity 1
 C         1.430594        -0.775917         0.788913
 C         0.051789        -0.267408         0.690996
 C        -1.106999        -0.082243         0.306274
 C        -2.366117         0.121449        -0.298080
 C        -2.697938        -1.169979        -1.006707
 C        -2.279471         1.197012        -1.308670
 O        -3.605788         1.244901        -1.898670
 C        -3.917334         2.322314        -2.634398
 O        -3.154896         3.091355        -3.212560
 H         1.378652        -1.839763         1.120629
 H         1.959378        -0.929702        -0.228036
 H         2.036524        -0.225897         1.564386
 H        -3.136136         0.472866         0.374031
 H        -3.818390        -1.300626        -0.866881
 H        -2.449174        -1.124975        -2.056001
 H        -1.986373        -1.820789        -0.456576
 H        -1.942663         2.062033        -0.753154
 H        -1.501931         1.104797        -2.094642
 H        -4.984360         2.314477        -2.922082
