19
Iteration:  2433
 C         1.294142         0.200522         0.415340
 C        -0.188069         0.169130         0.287204
 C        -1.342789         0.174060        -0.024975
 C        -2.792619        -0.270421        -0.366554
 C        -2.613732        -1.722614        -0.824245
 C        -3.419580         0.490287        -1.543677
 O        -3.556797         1.850232        -1.322453
 C        -2.888641         2.690271        -2.209184
 O        -2.262448         2.252177        -3.134658
 H         1.838959         0.441587        -0.458841
 H         1.711811         0.551166         1.431928
 H         1.628941        -0.892868         0.327730
 H        -3.471206        -0.161785         0.509706
 H        -2.251473        -2.337579        -0.041905
 H        -3.620020        -2.072404        -1.029112
 H        -2.160523        -1.791011        -1.802763
 H        -2.800458         0.260197        -2.392474
 H        -4.438165         0.070227        -1.729944
 H        -3.125828         3.757120        -1.930224
