19
Iteration:  2496charge 0 multiplicity 1
 C         1.281580         0.133518         0.689969
 C        -0.100936         0.208488         0.131896
 C        -1.228500         0.077166        -0.349900
 C        -2.667104        -0.291118        -0.506749
 C        -2.630561        -1.891927        -0.657281
 C        -3.459029         0.480543        -1.496071
 O        -3.515868         1.914961        -1.203615
 C        -2.956993         2.745198        -2.241368
 O        -2.406779         2.419618        -3.260769
 H         1.952129        -0.377053        -0.083157
 H         1.592309         1.071321         1.026857
 H         0.932546        -0.579151         1.516842
 H        -3.175966        -0.131902         0.437440
 H        -3.143696        -2.526404         0.065116
 H        -3.190725        -2.107346        -1.605652
 H        -1.642968        -2.351650        -0.557150
 H        -3.201728         0.452016        -2.548954
 H        -4.495101         0.155490        -1.522397
 H        -2.934443         3.743805        -1.782128
