19
Iteration:  1907charge 0 multiplicity 1
 C         1.310637         0.331315         0.427569
 C        -0.110493         0.131382         0.172894
 C        -1.292012        -0.184431         0.027890
 C        -2.740101        -0.351950        -0.298020
 C        -2.964630        -1.888957        -0.536063
 C        -3.003023         0.518493        -1.550587
 O        -2.910710         1.939919        -1.231677
 C        -3.040721         2.796111        -2.325630
 O        -2.982513         2.407897        -3.484053
 H         1.292001         0.925688         1.415743
 H         1.771026        -0.708184         0.721599
 H         1.769961         0.803767        -0.416588
 H        -3.298627         0.036906         0.560590
 H        -3.797453        -2.239758        -1.189080
 H        -1.965123        -2.386241        -0.638492
 H        -3.181377        -2.191168         0.519917
 H        -2.287382         0.229501        -2.291651
 H        -3.987443         0.234955        -1.964818
 H        -3.151310         3.743212        -1.922228
