19
Iteration:  2724
 C         1.174256         0.433435         0.716472
 C        -0.166751         0.071163         0.310833
 C        -1.322574        -0.170417        -0.044074
 C        -2.747067        -0.471671        -0.440571
 C        -2.936214        -1.921470        -0.978200
 C        -3.241239         0.500093        -1.588002
 O        -2.504669         1.765509        -1.230889
 C        -2.742305         2.750583        -2.192421
 O        -3.249211         2.633245        -3.300178
 H         1.226930         1.224494         1.442470
 H         1.738716        -0.564674         0.665935
 H         1.354051         1.094515        -0.054242
 H        -3.259057        -0.223280         0.513740
 H        -3.948609        -1.974830        -1.307233
 H        -2.231328        -1.989039        -1.829196
 H        -2.744380        -2.648197        -0.153420
 H        -2.969324         0.266311        -2.626279
 H        -4.325300         0.757528        -1.452825
 H        -2.202513         3.606819        -1.738235
