19
Iteration:  2492
 C         1.260905         0.078452         0.677206
 C        -0.110193         0.237404         0.109361
 C        -1.207310         0.077899        -0.322265
 C        -2.719907        -0.290308        -0.478517
 C        -2.617683        -1.863566        -0.693633
 C        -3.464089         0.481342        -1.490401
 O        -3.538721         1.908886        -1.195049
 C        -2.965868         2.746910        -2.251962
 O        -2.390384         2.401282        -3.252328
 H         2.117378        -0.142985        -0.011572
 H         1.720140         1.027124         1.039269
 H         1.031962        -0.534942         1.494867
 H        -3.221684        -0.029356         0.483687
 H        -3.048472        -2.563877         0.089887
 H        -3.160834        -2.105268        -1.623072
 H        -1.573332        -2.202788        -0.581781
 H        -3.067878         0.364857        -2.562819
 H        -4.483024         0.061689        -1.530253
 H        -2.773424         3.787532        -1.874635
