19
Iteration:  2767
 C         1.196889         0.324619         1.009371
 C        -0.006504         0.033192         0.219451
 C        -1.128314        -0.307568        -0.271454
 C        -2.539565        -0.488759        -0.477679
 C        -3.003082        -1.843817        -0.964177
 C        -3.226608         0.619240        -1.405692
 O        -2.717186         1.967148        -1.199445
 C        -2.766666         2.699472        -2.361283
 O        -3.430115         2.625782        -3.380229
 H         0.884900         1.326907         1.496403
 H         1.378318        -0.610122         1.799673
 H         2.123629         0.613632         0.501186
 H        -3.126215        -0.464334         0.456542
 H        -3.932778        -1.808422        -1.410754
 H        -2.426113        -2.215591        -1.808671
 H        -3.027733        -2.834143        -0.485857
 H        -2.929862         0.485770        -2.457883
 H        -4.283428         0.536555        -1.055871
 H        -1.830513         3.288157        -2.379463
