19
Iteration:  4649charge 0 multiplicity 1
 C         1.470772        -0.833500         0.984260
 C         0.180264        -0.540917         0.459735
 C        -0.912031        -0.011333         0.162991
 C        -2.252004         0.137934        -0.288952
 C        -2.895401        -1.263887        -0.581912
 C        -2.343047         1.338661        -1.375617
 O        -3.476243         1.122035        -2.338992
 C        -3.822063         2.279742        -2.978891
 O        -3.481824         3.408801        -2.777085
 H         1.428115        -0.975927         2.036419
 H         1.759599        -1.859567         0.733543
 H         2.254549         0.001568         0.781841
 H        -2.681740         0.495835         0.626299
 H        -3.733558        -1.133624        -1.277235
 H        -2.290018        -1.999245        -1.054490
 H        -3.215371        -1.773627         0.309132
 H        -2.544240         2.297717        -0.889037
 H        -1.378434         1.458458        -1.981588
 H        -4.627663         1.954514        -3.658843
