19
Iteration:  1168
 C         0.979803         0.868444         0.585859
 C        -0.381781         0.376367         0.060152
 C        -1.443649        -0.219410        -0.132442
 C        -2.755200        -0.304691        -0.668570
 C        -3.279171        -1.718880        -0.620902
 C        -2.728631         0.098777        -2.226781
 O        -2.112129         1.364800        -2.535509
 C        -2.520194         2.568275        -1.965547
 O        -3.530899         2.654548        -1.358469
 H         0.973080         1.890550         0.480805
 H         1.330377         0.508137         1.494509
 H         1.706859         0.511902        -0.209308
 H        -3.417711         0.366940        -0.077889
 H        -2.624762        -2.371196        -0.041040
 H        -4.220426        -1.864807        -0.150488
 H        -3.312980        -2.120554        -1.630479
 H        -2.110269        -0.633282        -2.753903
 H        -3.755887         0.097387        -2.596061
 H        -1.937892         3.501053        -2.204077
