19
Iteration:  2841
 C         1.245157        -0.057724         0.998103
 C        -0.069327         0.024745         0.400762
 C        -1.193537        -0.119905        -0.109408
 C        -2.511554        -0.332795        -0.473803
 C        -2.819929        -1.795885        -0.870394
 C        -2.972473         0.579291        -1.690513
 O        -2.724592         2.019937        -1.345490
 C        -3.083034         2.897731        -2.312326
 O        -3.515250         2.509737        -3.362433
 H         1.888545         0.808302         0.737277
 H         0.945183        -0.175301         1.994128
 H         1.992698        -0.896858         0.796300
 H        -3.181669        -0.093765         0.381855
 H        -3.871399        -2.154479        -0.756984
 H        -2.681971        -2.116652        -1.916370
 H        -2.313959        -2.650195        -0.360847
 H        -2.376516         0.262878        -2.603904
 H        -4.047952         0.473073        -1.860698
 H        -2.877845         3.969888        -2.030054
