19
Iteration:    66
 C         1.233755         0.428127        -0.709041
 C        -0.191080         0.295591        -0.413511
 C        -1.428539         0.235781        -0.188946
 C        -2.888893        -0.009763         0.051153
 C        -3.171386        -1.488616         0.235360
 C        -3.661370         0.390710        -1.180212
 O        -3.304108         1.866279        -1.269733
 C        -2.530465         2.321899        -2.220875
 O        -1.878215         1.754603        -3.134986
 H         1.686041         1.444820        -1.189149
 H         1.773010         0.259043         0.151518
 H         1.576902        -0.131321        -1.495475
 H        -3.267040         0.542726         0.959869
 H        -2.470864        -2.010707         0.865682
 H        -4.139658        -1.624987         0.702388
 H        -3.176066        -2.001766        -0.718755
 H        -3.284829        -0.043292        -2.084182
 H        -4.745974         0.383157        -1.046008
 H        -2.566909         3.377659        -2.187061
