19
Iteration:  1231
 C         0.840282         0.925001         0.395515
 C        -0.490941         0.320779         0.234052
 C        -1.438921        -0.230855        -0.225422
 C        -2.778658        -0.339964        -0.664237
 C        -3.145790        -1.874762        -0.646759
 C        -2.849648         0.226065        -2.211908
 O        -1.941435         1.326985        -2.359350
 C        -2.463814         2.548565        -1.947874
 O        -3.546006         2.754984        -1.405736
 H         1.280282         1.376434        -0.504831
 H         1.023902         1.713157         1.169516
 H         1.541521         0.094711         0.594858
 H        -3.349084         0.381864        -0.059817
 H        -2.310851        -2.467854        -1.062388
 H        -3.409249        -2.195579         0.376820
 H        -4.033034        -2.003852        -1.311360
 H        -2.557138        -0.530217        -2.986681
 H        -3.932860         0.510168        -2.380473
 H        -1.725445         3.134043        -2.396971
