19
Iteration:  4454
 C         1.479971        -0.276112         1.199671
 C         0.237507        -0.245969         0.326200
 C        -0.936403        -0.386991        -0.036184
 C        -2.347181        -0.159591        -0.475379
 C        -3.188874        -1.192702        -1.274413
 C        -2.205277         1.135811        -1.300966
 O        -3.674352         1.621010        -1.420647
 C        -3.820841         2.448683        -2.463149
 O        -3.046218         2.663778        -3.352120
 H         2.233648        -0.988060         0.801952
 H         1.924467         0.663653         1.357040
 H         1.117993        -0.744495         2.216121
 H        -2.877903         0.060328         0.478378
 H        -3.904073        -0.913597        -2.059334
 H        -2.462399        -1.945367        -1.569337
 H        -3.881503        -1.697759        -0.573777
 H        -1.666525         1.865473        -0.752115
 H        -1.932869         0.747741        -2.337962
 H        -4.875816         2.744821        -2.548484
