19
Iteration:   574charge 0 multiplicity 1
 C         1.488596        -0.105737         0.308347
 C         0.055532        -0.089405         0.002988
 C        -1.118700         0.162849         0.111639
 C        -2.541418        -0.082519        -0.122140
 C        -3.148367        -1.521835        -0.031536
 C        -2.935330         0.476002        -1.503122
 O        -2.571479         1.819798        -1.569458
 C        -3.088280         2.646770        -2.468761
 O        -3.760922         2.389142        -3.434173
 H         2.222322        -0.313181        -0.655013
 H         1.662139         1.002726         0.438177
 H         1.698354        -0.798118         1.064824
 H        -3.096819         0.440261         0.643633
 H        -2.697837        -2.056175         0.795954
 H        -4.215052        -1.284148         0.205217
 H        -3.069341        -2.050283        -0.988203
 H        -2.247699         0.052247        -2.273080
 H        -3.912693         0.389941        -2.011084
 H        -2.790023         3.671141        -2.375996
