19
Iteration:  2313
 C         0.995761         0.927675         0.167190
 C        -0.278935         0.283577        -0.018081
 C        -1.302445        -0.284321        -0.274254
 C        -2.758908        -0.471654        -0.531601
 C        -3.340785        -2.009425        -0.439687
 C        -3.268071         0.347683        -1.672887
 O        -3.289530         1.735680        -1.172063
 C        -2.516367         2.604668        -1.954904
 O        -1.981699         2.454174        -3.029666
 H         0.796459         1.808865         0.731640
 H         1.840351         0.450787         0.727107
 H         1.265878         1.527736        -0.617986
 H        -3.220053        -0.025662         0.386357
 H        -3.447522        -2.179108         0.609407
 H        -4.342374        -2.069390        -0.873528
 H        -2.696376        -2.878879        -0.723663
 H        -2.738329         0.223313        -2.637132
 H        -4.277086        -0.077854        -1.848889
 H        -2.389722         3.625242        -1.463840
