19
Iteration:   367charge 0 multiplicity 1
 C         1.394237         0.222674        -0.267258
 C        -0.077363         0.174199        -0.241775
 C        -1.251826        -0.009554        -0.154747
 C        -2.696850        -0.104441         0.012417
 C        -3.147872        -1.522781         0.017259
 C        -3.511606         0.569932        -1.146810
 O        -3.181330         2.026856        -1.223384
 C        -2.626091         2.475000        -2.395474
 O        -2.650396         1.930170        -3.477106
 H         1.752658         0.379535         0.873200
 H         1.967554        -0.713026        -0.529105
 H         1.925424         1.131771        -0.781073
 H        -3.018429         0.358584         1.013964
 H        -2.460736        -2.197099         0.565963
 H        -4.074097        -1.678436         0.626435
 H        -3.127562        -1.936475        -1.000124
 H        -3.346320         0.053643        -2.159343
 H        -4.578813         0.556788        -0.834266
 H        -1.933683         3.297769        -2.097204
