19
Iteration:  2542
 C         1.239488         0.372825         0.706267
 C        -0.011602         0.060150         0.107345
 C        -1.173018        -0.115639        -0.308943
 C        -2.624108        -0.344487        -0.446720
 C        -2.924326        -1.806610        -0.675558
 C        -3.309239         0.444277        -1.618527
 O        -3.344266         1.777863        -1.205362
 C        -2.882575         2.680813        -2.115688
 O        -2.609297         2.584469        -3.297152
 H         1.939918        -0.446370         0.352628
 H         1.766638         1.329110         0.228774
 H         1.082590         0.418455         1.880241
 H        -3.002954         0.114540         0.477546
 H        -3.933955        -2.150820        -0.414238
 H        -2.939190        -2.045959        -1.740448
 H        -2.429952        -2.483447         0.036446
 H        -2.840251         0.355173        -2.577110
 H        -4.363507         0.153859        -1.916949
 H        -3.003798         3.696230        -1.700489
