19
Iteration:  2239charge 0 multiplicity 1
 C         0.824597         1.038505        -0.117737
 C        -0.441208         0.354613        -0.153036
 C        -1.480060        -0.233763        -0.022435
 C        -2.905385        -0.511662        -0.319690
 C        -3.135790        -2.036729        -0.630625
 C        -3.311757         0.391210        -1.543473
 O        -3.241550         1.824777        -1.237625
 C        -2.360309         2.609255        -1.876677
 O        -1.798115         2.219034        -2.881370
 H         1.453473         1.050272         0.831424
 H         1.564360         0.570227        -0.816101
 H         0.752686         2.129814        -0.236033
 H        -3.582147        -0.174010         0.457279
 H        -3.958933        -2.585374        -0.138021
 H        -3.197527        -2.243054        -1.734506
 H        -2.213998        -2.533216        -0.197008
 H        -2.792966         0.186969        -2.444427
 H        -4.386190         0.144184        -1.716994
 H        -2.469852         3.636618        -1.750914
