19
Iteration:  4719charge 0 multiplicity 1
 C         1.574126        -0.602584         1.060987
 C         0.187756        -0.393385         0.555176
 C        -0.943026        -0.284723         0.110946
 C        -2.280418         0.162069        -0.457205
 C        -3.293037        -1.043732        -0.743179
 C        -2.000455         1.055346        -1.677853
 O        -3.287257         1.092057        -2.353416
 C        -3.870176         2.228192        -2.763535
 O        -3.572535         3.362523        -2.469859
 H         1.665071         0.106298         1.957300
 H         1.449426        -1.492461         1.680198
 H         2.440052        -0.516920         0.439593
 H        -2.831497         0.841394         0.293609
 H        -3.952721        -0.741460        -1.605685
 H        -2.986240        -2.048196        -1.089462
 H        -3.960000        -1.334741         0.089267
 H        -1.605977         2.112847        -1.387684
 H        -1.389464         0.700781        -2.524517
 H        -4.801050         1.876415        -3.343913
