19
Iteration:   440
 C         1.471329         0.082070        -0.019897
 C        -0.005697         0.151955        -0.161997
 C        -1.205705        -0.019436        -0.130557
 C        -2.675279        -0.191379         0.031732
 C        -3.165778        -1.658173         0.025235
 C        -3.325880         0.677804        -1.249899
 O        -2.865629         2.070475        -1.256492
 C        -2.896801         2.624408        -2.519681
 O        -3.055199         2.007044        -3.519493
 H         1.863522         1.134363         0.176219
 H         1.732311        -0.721892         0.695051
 H         2.090380        -0.124405        -0.891783
 H        -2.932149         0.304167         0.971419
 H        -2.883125        -2.327040         0.852938
 H        -4.244899        -1.666908        -0.016106
 H        -2.705662        -2.081446        -0.881292
 H        -2.813287         0.169391        -2.103575
 H        -4.412423         0.579825        -1.293332
 H        -2.527511         3.716143        -2.435906
