19
Iteration:   150
 C         0.965596         0.615493        -0.980314
 C        -0.184983         0.073676        -0.304751
 C        -1.386859         0.120780        -0.289362
 C        -2.795017         0.043480         0.042908
 C        -3.257957        -1.447002         0.216479
 C        -3.638743         0.453894        -1.115301
 O        -3.390648         1.804979        -1.381568
 C        -2.453545         2.271949        -2.151645
 O        -1.630370         1.768650        -2.863689
 H         0.669264         0.643684        -2.002243
 H         1.100338         1.730988        -0.771475
 H         1.947333         0.062501        -0.753650
 H        -3.009049         0.642940         0.946135
 H        -3.121669        -1.745250         1.271522
 H        -4.328116        -1.564612        -0.054509
 H        -2.594213        -2.054657        -0.404084
 H        -3.394801        -0.170022        -2.036670
 H        -4.699350         0.482741        -0.965251
 H        -2.392762         3.411092        -1.944275
