19
Iteration:  1678
 C         1.465825        -0.055411         0.864534
 C         0.053916        -0.215073         0.429005
 C        -1.098443        -0.016794         0.075677
 C        -2.487338        -0.080756        -0.448691
 C        -3.108597        -1.513265        -0.507320
 C        -2.529458         0.552443        -1.854507
 O        -2.395623         1.965585        -1.729741
 C        -3.340176         2.734880        -2.383165
 O        -4.207877         2.309913        -3.160553
 H         2.119688        -0.331884         0.028067
 H         1.836016         0.970198         1.168393
 H         1.682015        -0.706543         1.673346
 H        -2.998244         0.595157         0.295904
 H        -3.049280        -1.856344        -1.564650
 H        -2.504307        -2.255032        -0.000996
 H        -4.066473        -1.806587        -0.135840
 H        -1.691346         0.208665        -2.431206
 H        -3.439847         0.324884        -2.413573
 H        -2.935505         3.809860        -2.121718
