19
Iteration:    29
 C         1.257505         0.417388        -0.579180
 C        -0.182309         0.175286        -0.182468
 C        -1.367190         0.035666        -0.125115
 C        -2.798611        -0.065507         0.050514
 C        -3.031754        -1.592406         0.281304
 C        -3.536286         0.597801        -1.195324
 O        -3.402794         2.043935        -1.411890
 C        -2.518991         2.339650        -2.279063
 O        -2.174121         1.816098        -3.350840
 H         1.558521         1.489740        -0.228938
 H         1.839400        -0.375206        -0.043362
 H         1.363173        -0.036754        -1.589999
 H        -3.160756         0.469391         0.971972
 H        -2.162173        -1.949321         0.863061
 H        -3.965592        -1.681353         0.859412
 H        -3.169925        -2.210568        -0.622015
 H        -3.281955         0.021302        -2.124664
 H        -4.623522         0.434927        -1.093468
 H        -2.234517         3.404931        -2.077925
