19
Iteration:   565
 C         1.411604        -0.078413         0.251259
 C         0.047781        -0.074782         0.018003
 C        -1.144542         0.141587         0.086028
 C        -2.532796        -0.080175        -0.096965
 C        -3.136100        -1.491757        -0.024615
 C        -2.862686         0.366136        -1.469757
 O        -2.587716         1.849020        -1.504786
 C        -3.061400         2.666403        -2.502223
 O        -3.728303         2.406534        -3.494643
 H         1.851734        -0.230364        -0.866488
 H         1.832929         0.890320         0.673051
 H         1.818155        -0.783937         0.877373
 H        -3.135287         0.645632         0.544601
 H        -2.652016        -2.100051         0.721820
 H        -4.222612        -1.446188         0.114341
 H        -3.139610        -1.946088        -1.010821
 H        -2.299575        -0.211329        -2.156995
 H        -3.944887         0.165904        -1.591141
 H        -2.932638         3.773000        -2.102765
