19
Iteration:  1240
 C         0.825922         0.862428         0.414650
 C        -0.470789         0.384244         0.209248
 C        -1.456279        -0.220936        -0.224389
 C        -2.761730        -0.434788        -0.679200
 C        -3.163434        -1.849760        -0.607046
 C        -2.881526         0.217950        -2.179229
 O        -1.954344         1.414866        -2.382179
 C        -2.425095         2.565940        -1.963013
 O        -3.518073         2.709991        -1.440598
 H         1.021741         1.091600        -0.710663
 H         0.783732         1.759351         1.162959
 H         1.555925         0.173922         0.798123
 H        -3.423710         0.162455        -0.053277
 H        -2.352017        -2.393091        -1.132178
 H        -2.920854        -2.299853         0.353036
 H        -4.166287        -2.124548        -1.035358
 H        -2.516716        -0.477496        -2.957026
 H        -3.898460         0.626645        -2.349246
 H        -1.728963         3.405943        -2.170641
