19
Iteration:  4234
 C         1.460877        -1.055065         1.310826
 C         0.222698        -0.577117         0.658754
 C        -0.804839        -0.181994         0.053262
 C        -2.138269         0.344242        -0.459732
 C        -2.830960        -0.681312        -1.377180
 C        -2.179057         1.644803        -1.154055
 O        -3.538417         1.748276        -1.411271
 C        -4.089521         2.032891        -2.608248
 O        -3.594807         2.330395        -3.695035
 H         1.773090        -0.376109         2.091954
 H         1.128068        -2.004553         1.642171
 H         2.426593        -1.003940         0.640099
 H        -2.799833         0.512247         0.381249
 H        -3.242344        -0.230903        -2.364506
 H        -2.046940        -1.380376        -1.662720
 H        -3.486612        -1.310020        -0.670759
 H        -1.803964         2.481095        -0.517419
 H        -1.592776         1.807326        -2.075933
 H        -5.158984         2.146926        -2.493854
