19
Iteration:   848
 C         1.502558        -0.077578         0.660799
 C         0.093643         0.048030         0.406050
 C        -1.068623        -0.209107         0.073435
 C        -2.439384        -0.020370        -0.498687
 C        -3.304658        -1.287837        -0.303825
 C        -2.591707         0.454828        -1.917882
 O        -2.164675         1.829739        -2.159512
 C        -3.182867         2.614953        -2.454654
 O        -4.361668         2.334248        -2.503180
 H         1.958897         0.727811         0.212592
 H         1.874584        -0.297376         1.680229
 H         1.658208        -1.032537         0.100169
 H        -3.043429         0.739668         0.103864
 H        -3.365679        -1.583848         0.761802
 H        -4.306765        -1.017539        -0.683070
 H        -3.076773        -2.108915        -1.001040
 H        -2.015464        -0.079748        -2.712549
 H        -3.708925         0.397551        -2.143504
 H        -2.881028         3.584455        -2.927628
