19
Iteration:  1249charge 0 multiplicity 1
 C         0.854993         0.845257         0.422491
 C        -0.465671         0.370550         0.205722
 C        -1.453337        -0.173425        -0.185161
 C        -2.819581        -0.422126        -0.763051
 C        -3.134086        -1.933898        -0.613371
 C        -2.877656         0.234412        -2.106752
 O        -1.964613         1.419767        -2.413743
 C        -2.424262         2.610524        -1.964200
 O        -3.504644         2.687129        -1.462718
 H         1.426615         1.235968        -0.544884
 H         0.791670         1.887975         0.897049
 H         1.479129         0.166093         0.965126
 H        -3.552504         0.040724        -0.100495
 H        -2.710094        -2.453116        -1.465144
 H        -2.918975        -2.166921         0.461927
 H        -4.227982        -2.187276        -0.612867
 H        -2.541951        -0.463178        -2.866225
 H        -3.880483         0.539908        -2.362008
 H        -1.720042         3.535767        -1.908412
