19
Iteration:   202
 C         1.005959         0.512682        -0.949348
 C        -0.391823         0.422337        -0.555263
 C        -1.482759         0.112284        -0.112932
 C        -2.829126        -0.105206         0.020041
 C        -3.268735        -1.660775         0.408730
 C        -3.429862         0.425750        -1.297486
 O        -3.332204         1.933135        -1.250683
 C        -2.419470         2.399625        -2.169611
 O        -1.678849         1.743365        -2.915955
 H         1.194870        -0.219177        -1.772665
 H         1.214388         1.556575        -1.473285
 H         1.592537         0.314373         0.058712
 H        -3.197223         0.528440         0.775808
 H        -2.487583        -2.259336         0.972652
 H        -4.287410        -1.698939         0.903294
 H        -3.290859        -2.044648        -0.642912
 H        -2.976943         0.158063        -2.317348
 H        -4.546371         0.307956        -1.274671
 H        -2.430290         3.467937        -2.311638
