19
Iteration:   309
 C         1.286114         0.419073        -0.499717
 C        -0.137451         0.087756        -0.366569
 C        -1.316877         0.141629        -0.185121
 C        -2.778911        -0.108981        -0.058146
 C        -3.296238        -1.580666         0.142017
 C        -3.462808         0.618936        -1.188510
 O        -3.167073         1.950314        -1.154074
 C        -2.648911         2.447508        -2.330775
 O        -2.226662         1.799713        -3.234281
 H         2.095037        -0.266032         0.184908
 H         1.560089         0.080664        -1.510811
 H         1.496580         1.445318        -0.471206
 H        -3.104302         0.488951         0.919403
 H        -3.091700        -1.773568         1.202240
 H        -4.254007        -1.895349        -0.211535
 H        -2.650466        -2.305874        -0.376009
 H        -3.339830         0.087298        -2.147928
 H        -4.487576         0.454345        -0.871791
 H        -2.854406         3.598844        -2.294303
