19
Iteration:   351charge 0 multiplicity 1
 C         1.310154         0.235522        -0.255893
 C        -0.133294         0.309190        -0.359360
 C        -1.250137        -0.073510        -0.161242
 C        -2.644895        -0.086324        -0.036884
 C        -3.182734        -1.590020         0.062179
 C        -3.437857         0.621591        -1.097267
 O        -3.186006         1.982660        -1.213282
 C        -2.590149         2.461062        -2.345203
 O        -2.557894         1.874153        -3.417126
 H         1.636259         0.175971         0.822356
 H         1.437432        -0.532014        -0.990354
 H         1.745522         1.042719        -0.738077
 H        -2.844319         0.467154         0.914857
 H        -2.594986        -2.078385         0.841362
 H        -4.236671        -1.519818         0.232436
 H        -3.075548        -2.043681        -0.949869
 H        -3.212550         0.260137        -2.070407
 H        -4.515513         0.569020        -0.941156
 H        -2.490208         3.638968        -2.349211
