19
Iteration:  1134charge 0 multiplicity 1
 C         1.041996         0.721717         0.692083
 C        -0.300586         0.280499         0.267767
 C        -1.367785         0.074812        -0.383015
 C        -2.723399        -0.329568        -0.853581
 C        -3.301748        -1.648219        -0.436191
 C        -2.792848         0.131368        -2.323120
 O        -2.024954         1.387056        -2.543612
 C        -2.642931         2.547102        -2.017868
 O        -3.616585         2.536611        -1.278286
 H         1.082072         1.654544         1.089216
 H         1.742233         0.134768         1.211230
 H         1.377664         0.910365        -0.352669
 H        -3.475098         0.332377        -0.350638
 H        -2.985463        -1.939331         0.546417
 H        -4.362685        -1.565167        -0.621697
 H        -2.883455        -2.403984        -1.099729
 H        -2.483541        -0.667054        -3.026533
 H        -3.843034         0.401970        -2.552521
 H        -2.056712         3.249595        -2.654048
