19
Iteration:  2094charge 0 multiplicity 1
 C         1.169627         0.852040         0.086675
 C        -0.223181         0.441288        -0.038469
 C        -1.315354        -0.003962        -0.328533
 C        -2.828179        -0.370171        -0.374013
 C        -2.946960        -1.856100        -0.748368
 C        -3.585630         0.453771        -1.393601
 O        -3.611457         1.896151        -1.330598
 C        -2.527321         2.464962        -1.927414
 O        -1.914163         1.882431        -2.753339
 H         1.597713         0.461630        -0.889699
 H         1.416766         1.968754        -0.152298
 H         1.718106         0.463006         0.867030
 H        -3.339593        -0.131660         0.538151
 H        -1.959737        -2.142921        -1.224429
 H        -3.039747        -2.623713         0.063280
 H        -3.809710        -2.048960        -1.428710
 H        -3.409179         0.111375        -2.461523
 H        -4.655878         0.294723        -1.243792
 H        -2.224658         3.626572        -1.654236
