19
Iteration:  1060charge 0 multiplicity 1
 C         1.201051         0.315096         0.922488
 C        -0.115889         0.256729         0.212038
 C        -1.288572         0.222344        -0.246796
 C        -2.603149        -0.140190        -0.733206
 C        -3.152323        -1.626085        -0.447814
 C        -2.789063         0.080966        -2.241119
 O        -2.264935         1.455097        -2.674502
 C        -2.891649         2.537373        -2.252526
 O        -3.783329         2.688294        -1.429848
 H         1.278161        -0.110426         1.988819
 H         1.878095        -0.313188         0.319627
 H         1.745984         1.365406         0.875948
 H        -3.371218         0.511642        -0.310044
 H        -3.927838        -1.635560         0.329393
 H        -3.442313        -2.095751        -1.407078
 H        -2.297440        -2.183446        -0.047371
 H        -2.250189        -0.635859        -2.830729
 H        -3.843729         0.049596        -2.449867
 H        -2.536338         3.234621        -2.977657
