19
Iteration:  3874
 C         1.496179        -0.788076         0.441654
 C         0.073380        -0.392219         0.560642
 C        -1.115741        -0.115081         0.388174
 C        -2.470966         0.172018        -0.191236
 C        -2.784079        -0.997848        -1.217575
 C        -2.359807         1.595270        -0.883212
 O        -3.691095         1.967567        -1.317179
 C        -3.804868         2.155291        -2.703121
 O        -3.013392         2.088317        -3.638334
 H         1.944957        -0.182618        -0.446738
 H         2.145775        -0.666897         1.252891
 H         1.745892        -1.807955         0.195364
 H        -3.230578         0.206539         0.565588
 H        -3.530587        -0.817895        -1.983540
 H        -1.712538        -1.309120        -1.505427
 H        -3.207421        -1.874604        -0.616289
 H        -1.982418         2.338070        -0.052062
 H        -1.664728         1.636321        -1.721509
 H        -4.886507         2.255347        -2.774358
