19
Iteration:   774
 C         1.477647        -0.235549         0.655099
 C         0.104923        -0.108485         0.184479
 C        -1.107390         0.068828         0.090972
 C        -2.473168         0.093504        -0.327818
 C        -3.097802        -1.401544        -0.110798
 C        -2.593626         0.411499        -1.840793
 O        -2.284279         1.778489        -2.119362
 C        -3.275330         2.690056        -2.369201
 O        -4.325745         2.465373        -2.927991
 H         1.764776         0.295747         1.695194
 H         1.649216        -1.349601         0.604509
 H         2.109044        -0.063801        -0.130821
 H        -3.040024         0.756275         0.281715
 H        -3.168447        -1.496612         1.007130
 H        -4.102013        -1.593870        -0.550679
 H        -2.472739        -2.225790        -0.573996
 H        -1.905999        -0.185148        -2.436386
 H        -3.653160         0.233715        -2.135760
 H        -3.072005         3.745658        -2.038065
