19
Iteration:   482
 C         1.559509         0.130248        -0.009034
 C         0.075710        -0.086626        -0.006800
 C        -1.172699        -0.102289         0.005446
 C        -2.700712        -0.010776        -0.031181
 C        -3.178023        -1.476605        -0.025021
 C        -3.161074         0.511609        -1.373409
 O        -2.853487         1.963134        -1.331948
 C        -2.955818         2.641591        -2.472300
 O        -3.282298         2.135242        -3.503260
 H         2.004156         1.085998        -0.343870
 H         1.840785         0.054752         1.064729
 H         2.014175        -0.689141        -0.719982
 H        -3.098264         0.605460         0.722328
 H        -3.482896        -1.942288         0.939506
 H        -4.086722        -1.616130        -0.637796
 H        -2.322246        -2.076625        -0.441577
 H        -2.657544        -0.024139        -2.217793
 H        -4.269202         0.368090        -1.464341
 H        -2.588717         3.601274        -2.231222
