19
Iteration:   751charge 0 multiplicity 1
 C         1.508476        -0.368368         0.607890
 C         0.073759         0.081471         0.421362
 C        -1.034271         0.115273        -0.097849
 C        -2.491528         0.047944        -0.325531
 C        -3.038223        -1.371951        -0.098416
 C        -2.738007         0.313483        -1.880110
 O        -2.312090         1.796055        -1.980505
 C        -3.277015         2.664155        -2.377030
 O        -4.278815         2.468825        -2.995212
 H         1.772466        -0.188668         1.738031
 H         1.893168        -1.304723         0.129855
 H         2.092706         0.294124         0.068083
 H        -3.009685         0.766024         0.287857
 H        -2.853835        -1.776501         0.931068
 H        -4.170872        -1.273791        -0.200024
 H        -2.853502        -2.113782        -0.901990
 H        -2.010312        -0.253284        -2.491490
 H        -3.772562         0.336330        -2.323699
 H        -2.900351         3.729811        -2.275130
