19
Iteration:  1868
 C         1.380546         0.159132         0.576883
 C        -0.037901        -0.008784         0.298688
 C        -1.225766         0.008883         0.102674
 C        -2.508382        -0.205723        -0.370820
 C        -2.952594        -1.701011        -0.686438
 C        -3.058375         0.498104        -1.524242
 O        -2.957998         1.937770        -1.319511
 C        -3.008594         2.682200        -2.346393
 O        -3.288471         2.318442        -3.450389
 H         1.593935         0.172913         1.626269
 H         2.025907        -0.630649         0.345712
 H         1.691370         1.212856         0.198598
 H        -3.203448        -0.090264         0.506338
 H        -2.724322        -2.067050        -1.692791
 H        -2.401057        -2.400158        -0.075347
 H        -4.001499        -1.617436        -0.374630
 H        -2.430261         0.226617        -2.442650
 H        -4.105598         0.279642        -1.774183
 H        -2.788853         3.853002        -2.238969
