19
Iteration:  4566charge 0 multiplicity 1
 C         1.365568        -0.847556         0.764596
 C         0.047279        -0.213022         0.699997
 C        -1.079152        -0.062064         0.322587
 C        -2.365980         0.170189        -0.299793
 C        -2.710013        -1.186460        -1.005243
 C        -2.207606         1.206012        -1.308024
 O        -3.573039         1.247927        -1.939929
 C        -3.935595         2.271010        -2.687933
 O        -3.174964         3.085941        -3.145526
 H         1.410467        -1.840588         1.345140
 H         1.808312        -0.684957        -0.232063
 H         2.036933        -0.206517         1.294644
 H        -3.036180         0.530995         0.522704
 H        -3.745867        -1.473248        -0.817102
 H        -2.492536        -1.078707        -2.149726
 H        -2.119370        -2.042362        -0.561223
 H        -2.080750         2.235324        -0.807703
 H        -1.388749         1.087561        -1.984297
 H        -5.037722         2.307673        -2.716558
