19
Iteration:  2166
 C         0.984265         0.886954        -0.163911
 C        -0.477723         0.516581        -0.156429
 C        -1.561170         0.006471        -0.062357
 C        -2.890396        -0.401224        -0.374335
 C        -2.778053        -1.892803        -0.824075
 C        -3.635693         0.464699        -1.349682
 O        -3.534861         1.909161        -1.280464
 C        -2.389989         2.354169        -1.868192
 O        -1.639784         1.921529        -2.689702
 H         1.631566        -0.012609        -0.044916
 H         1.290073         1.109525        -1.165102
 H         1.407248         1.701051         0.572539
 H        -3.502497        -0.311340         0.568671
 H        -3.141465        -2.090947        -1.850649
 H        -1.736684        -2.099885        -0.943166
 H        -3.228963        -2.576551        -0.142449
 H        -3.252551         0.173474        -2.313743
 H        -4.732179         0.305760        -1.385908
 H        -2.151772         3.513003        -1.790661
