19
Iteration:  4502
 C         1.502446        -0.543494         1.077251
 C         0.193790        -0.383622         0.478922
 C        -0.931497        -0.296288        -0.054865
 C        -2.302529         0.005312        -0.350889
 C        -2.845855        -1.377668        -1.015700
 C        -2.490999         1.254177        -1.258004
 O        -3.834125         1.592103        -1.578766
 C        -3.875514         2.385845        -2.708719
 O        -2.971088         2.961213        -3.332510
 H         2.028250        -1.597420         1.028840
 H         2.215152         0.224650         0.552799
 H         1.442393        -0.259616         2.103008
 H        -2.890705         0.219741         0.524485
 H        -3.689743        -1.405516        -1.750831
 H        -1.974704        -2.028250        -1.471975
 H        -3.343741        -2.078540        -0.283151
 H        -2.084297         2.105683        -0.650965
 H        -2.134548         1.092218        -2.219801
 H        -4.918149         2.580306        -2.911793
