19
Iteration:  4116charge 0 multiplicity 1
 C         1.424575        -1.022954         0.973581
 C         0.177771        -0.457783         0.629827
 C        -0.916690        -0.033716         0.272060
 C        -2.185890         0.214690        -0.393806
 C        -2.604375        -0.946482        -1.289415
 C        -2.235241         1.540459        -1.130873
 O        -3.614884         2.050182        -1.357739
 C        -4.042339         2.326490        -2.646077
 O        -3.515789         1.988434        -3.695237
 H         1.436290        -1.875465         1.854094
 H         1.916508        -1.408232         0.071924
 H         2.023678        -0.222545         1.433131
 H        -2.960039         0.323412         0.444028
 H        -1.787346        -1.726192        -1.297599
 H        -3.552737        -1.216446        -0.860580
 H        -2.966720        -0.373903        -2.170014
 H        -1.774155         2.275930        -0.532910
 H        -1.774958         1.654468        -2.155319
 H        -5.129243         2.723344        -2.563739
