19
Iteration:   775
 C         1.468826        -0.234047         0.657745
 C         0.106716        -0.113655         0.173218
 C        -1.114462         0.063621         0.106852
 C        -2.464305         0.094955        -0.325318
 C        -3.092911        -1.400563        -0.110256
 C        -2.593499         0.403794        -1.847845
 O        -2.282900         1.786614        -2.121274
 C        -3.271930         2.693323        -2.364818
 O        -4.331794         2.462221        -2.926385
 H         1.756774         0.330054         1.685520
 H         1.682242        -1.333746         0.620069
 H         2.115142        -0.083584        -0.148606
 H        -3.036980         0.767624         0.267151
 H        -3.197240        -1.480434         0.991137
 H        -4.071684        -1.592844        -0.563069
 H        -2.500549        -2.238216        -0.564186
 H        -1.926191        -0.186219        -2.445354
 H        -3.637139         0.261771        -2.142912
 H        -3.039530         3.722875        -2.063040
