19
Iteration:  3029
 C         1.301839        -0.144568         1.084574
 C         0.083656        -0.369701         0.443452
 C        -0.999887        -0.248494        -0.154843
 C        -2.394934        -0.272818        -0.472232
 C        -2.837772        -1.707877        -0.890897
 C        -2.763293         0.717828        -1.612765
 O        -3.026994         2.208518        -1.282992
 C        -3.513427         2.878896        -2.371929
 O        -3.413142         2.505044        -3.526950
 H         1.792671        -1.147041         1.179365
 H         1.980538         0.477123         0.606470
 H         1.428608         0.188682         2.153103
 H        -2.922816        -0.038493         0.457893
 H        -3.939291        -1.587646        -0.918777
 H        -2.573123        -1.734904        -2.004180
 H        -2.411809        -2.499765        -0.198321
 H        -2.031698         0.627328        -2.418966
 H        -3.863838         0.578601        -1.835628
 H        -4.151777         3.721684        -2.009179
