19
Iteration:  3399charge 0 multiplicity 1
 C         1.125566        -0.044671         1.022404
 C        -0.215002        -0.036121         0.467274
 C        -1.371255        -0.106842         0.069483
 C        -2.602477        -0.358665        -0.544764
 C        -2.603809        -1.946152        -1.016933
 C        -2.903488         0.629703        -1.640381
 O        -2.324512         2.060837        -1.611387
 C        -2.893938         2.887783        -2.521450
 O        -3.939760         2.591585        -2.992400
 H         2.080582         0.207816         0.497537
 H         1.144842         0.716732         1.840888
 H         1.436129        -1.094099         1.347910
 H        -3.473859        -0.294808         0.151428
 H        -3.607580        -2.093681        -1.343407
 H        -1.795392        -2.241665        -1.707070
 H        -2.464114        -2.213958        -0.000918
 H        -2.438019         0.184399        -2.512492
 H        -4.064757         0.503242        -1.714190
 H        -2.243485         3.835260        -2.559493
