19
Iteration:  4334charge 0 multiplicity 1
 C         1.380423        -0.541816         1.027387
 C         0.030938        -0.259342         0.628956
 C        -1.106042        -0.211256         0.225995
 C        -2.360138        -0.086179        -0.479176
 C        -2.709459        -1.379230        -1.454576
 C        -2.275819         1.176554        -1.319001
 O        -3.501602         2.073547        -1.222346
 C        -3.755976         2.556518        -2.451932
 O        -3.345427         2.291591        -3.582445
 H         2.198861         0.102482         0.616081
 H         1.294156        -0.519120         2.085456
 H         1.756035        -1.598663         0.688026
 H        -3.119395         0.075245         0.262839
 H        -3.789236        -1.787831        -1.245088
 H        -2.480773        -0.997603        -2.443036
 H        -2.020234        -2.181038        -1.173636
 H        -1.552317         1.801258        -0.910998
 H        -2.106193         0.974639        -2.417929
 H        -4.320122         3.456769        -2.346458
