19
Iteration:  3070charge 0 multiplicity 1
 C         1.389904        -0.160575         1.140269
 C         0.031830        -0.204603         0.317736
 C        -1.099925        -0.059848        -0.078754
 C        -2.464355        -0.257181        -0.482172
 C        -2.773144        -1.734111        -0.820218
 C        -2.885089         0.512717        -1.822727
 O        -3.011190         1.999991        -1.362772
 C        -3.239560         2.916398        -2.269152
 O        -3.546836         2.656246        -3.404123
 H         1.491850        -1.230034         1.514515
 H         2.064312        -0.068337         0.343164
 H         1.284397         0.630879         1.963651
 H        -3.220568         0.198556         0.194881
 H        -3.784396        -1.864663        -1.255085
 H        -2.058674        -2.168167        -1.547505
 H        -2.664212        -2.398260         0.103513
 H        -2.125174         0.498706        -2.631674
 H        -3.853091         0.107000        -2.010462
 H        -2.950409         3.888845        -1.865376
