19
Iteration:  4880charge 0 multiplicity 1
 C         1.246057        -0.056446         1.165698
 C        -0.094469        -0.158923         0.562076
 C        -1.019714         0.001198        -0.163227
 C        -2.278854         0.052111        -0.934988
 C        -3.277083        -1.158787        -0.469250
 C        -2.155522         0.487458        -2.483468
 O        -3.432926         1.127527        -2.808997
 C        -3.627515         2.404391        -2.317566
 O        -2.967197         2.941973        -1.475096
 H         2.101420         0.294274         0.536053
 H         1.187743         0.623621         1.988012
 H         1.559325        -1.015416         1.687965
 H        -2.696501         0.932790        -0.470925
 H        -4.108708        -1.082528        -1.137060
 H        -2.788976        -2.182691        -0.442288
 H        -3.481621        -0.910865         0.588210
 H        -1.326582         1.290054        -2.391617
 H        -2.116302        -0.337965        -3.209446
 H        -4.665076         2.645111        -2.547001
