19
Iteration:  4661charge 0 multiplicity 1
 C         1.464438        -0.837051         1.053024
 C         0.240618        -0.500578         0.443620
 C        -0.869932        -0.071422         0.100657
 C        -2.220085         0.190154        -0.329853
 C        -3.032344        -1.322547        -0.595853
 C        -2.333018         1.310703        -1.376247
 O        -3.374059         1.161991        -2.359082
 C        -3.931342         2.267661        -2.928483
 O        -3.473510         3.376954        -2.736260
 H         1.308597        -0.541496         2.072374
 H         1.915497        -1.742744         0.750880
 H         2.293387        -0.111540         0.646847
 H        -2.923002         0.578676         0.398619
 H        -3.804213        -1.154537        -1.269618
 H        -2.263865        -2.048614        -0.903520
 H        -3.501443        -1.471048         0.344291
 H        -2.561191         2.257215        -0.769429
 H        -1.371783         1.391835        -1.998792
 H        -4.585917         2.011128        -3.799013
