19
Iteration:  1680
 C         1.490906        -0.049412         0.878231
 C         0.052319        -0.228316         0.413523
 C        -1.098492        -0.002034         0.073086
 C        -2.505626        -0.091946        -0.437437
 C        -3.094622        -1.506625        -0.515147
 C        -2.543949         0.556615        -1.844630
 O        -2.413006         1.962198        -1.743079
 C        -3.335844         2.734740        -2.377038
 O        -4.195564         2.320017        -3.168106
 H         2.103893        -0.381993         0.064267
 H         1.787461         1.000457         1.108105
 H         1.722754        -0.769909         1.736389
 H        -3.010895         0.545147         0.278357
 H        -3.083020        -1.756509        -1.582601
 H        -2.489700        -2.300817        -0.013183
 H        -4.041886        -1.792424        -0.024790
 H        -1.633665         0.220676        -2.393589
 H        -3.455127         0.269910        -2.423690
 H        -2.973407         3.727855        -2.099302
