19
Iteration:  1467
 C         1.150273         0.155800         1.128699
 C        -0.144441         0.049088         0.412140
 C        -1.169567         0.080051        -0.239889
 C        -2.461115        -0.043332        -0.754076
 C        -2.937535        -1.485213        -0.492024
 C        -2.708988         0.245280        -2.343589
 O        -2.193968         1.616440        -2.621102
 C        -3.081840         2.633611        -2.375807
 O        -4.060743         2.482452        -1.632146
 H         0.807460         0.387242         2.220099
 H         1.603831        -0.870655         1.079727
 H         1.876210         0.941853         0.855790
 H        -3.143761         0.639084        -0.166797
 H        -2.701582        -2.086277        -1.424399
 H        -2.522691        -1.788314         0.527041
 H        -4.078151        -1.480610        -0.320014
 H        -2.086570        -0.460677        -2.908164
 H        -3.748324         0.167338        -2.627437
 H        -2.908795         3.574839        -2.839696
