19
Iteration:  1957
 C         1.303521         0.565560         0.277397
 C        -0.157997         0.118086         0.242979
 C        -1.339086        -0.014309        -0.054493
 C        -2.756530        -0.356485        -0.242119
 C        -3.094641        -1.904601        -0.466140
 C        -3.053190         0.299106        -1.622323
 O        -3.107552         1.734422        -1.310350
 C        -2.789611         2.666991        -2.177976
 O        -2.727476         2.565390        -3.370197
 H         1.412233         1.602800         0.449944
 H         1.800694         0.120921         1.092495
 H         1.599583         0.253568        -0.774019
 H        -3.317552         0.182110         0.567723
 H        -3.987143        -2.159596         0.071198
 H        -3.451549        -1.919962        -1.501694
 H        -2.283688        -2.610398        -0.372170
 H        -2.311826        -0.021408        -2.394124
 H        -4.053538        -0.067067        -1.934248
 H        -2.604349         3.562950        -1.436571
