19
Iteration:  2933charge 0 multiplicity 1
 C         1.315611        -0.255780         0.844013
 C        -0.086370        -0.203635         0.495868
 C        -1.238616        -0.149093         0.193965
 C        -2.497532        -0.226865        -0.534393
 C        -2.772773        -1.784449        -0.672723
 C        -2.475136         0.669899        -1.792372
 O        -2.876649         2.040834        -1.431548
 C        -3.639406         2.816920        -2.294017
 O        -3.431826         2.714901        -3.479306
 H         1.834743        -0.438114        -0.104748
 H         1.898731         0.662735         1.298911
 H         1.787337        -1.002081         1.418238
 H        -3.352568         0.130024         0.077029
 H        -3.481774        -1.939089        -1.432532
 H        -1.903904        -2.404070        -0.889376
 H        -3.140919        -2.066156         0.294451
 H        -1.578414         0.901884        -2.294372
 H        -3.358317         0.238809        -2.389596
 H        -4.265196         3.668559        -1.926162
