19
Iteration:  3698
 C         1.560875        -0.849456         0.855278
 C         0.155726        -0.459025         0.662151
 C        -0.951784        -0.158126         0.207806
 C        -2.266782         0.183471        -0.384663
 C        -2.900179        -1.098779        -1.065804
 C        -2.212304         1.405485        -1.301109
 O        -3.688254         1.841581        -1.348404
 C        -3.979329         2.366790        -2.606821
 O        -3.304610         2.403741        -3.637402
 H         2.190547        -0.717326         1.797053
 H         1.772651        -1.832750         0.632557
 H         2.068147        -0.329633         0.069913
 H        -2.987435         0.503413         0.360431
 H        -3.552314        -0.832231        -1.932008
 H        -2.104418        -1.751126        -1.422792
 H        -3.307730        -1.682744        -0.274650
 H        -1.625270         2.200875        -0.676133
 H        -1.712805         1.308051        -2.309152
 H        -4.976267         2.751523        -2.510987
