19
Iteration:   319
 C         1.339927         0.355546        -0.468432
 C        -0.118218         0.191831        -0.378299
 C        -1.338034         0.151064        -0.224743
 C        -2.758686        -0.137399        -0.034132
 C        -3.279467        -1.637971         0.150207
 C        -3.528526         0.533534        -1.190111
 O        -3.086353         2.014855        -1.137277
 C        -2.693930         2.497862        -2.348519
 O        -2.282954         1.779257        -3.247841
 H         1.984868        -0.164312         0.496833
 H         1.756342        -0.089811        -1.376012
 H         1.615952         1.365741        -0.473720
 H        -3.065780         0.456984         0.925224
 H        -3.315563        -2.032474         1.169784
 H        -4.338877        -1.601981        -0.077165
 H        -2.706050        -2.327409        -0.472775
 H        -3.142318         0.189243        -2.141680
 H        -4.624288         0.599418        -1.171167
 H        -2.922247         3.662928        -2.421838
