19
Iteration:   665
 C         1.601251        -0.101216         0.670744
 C         0.212429        -0.275954         0.062942
 C        -0.995078        -0.112132         0.069050
 C        -2.419850         0.006727        -0.203387
 C        -3.155331        -1.378990        -0.189142
 C        -2.961004         0.559539        -1.542774
 O        -2.457338         1.909494        -1.821311
 C        -3.157252         2.643622        -2.638775
 O        -4.211354         2.405675        -3.206969
 H         1.975919        -1.234450         1.019180
 H         2.458443         0.134737        -0.032974
 H         1.563930         0.502265         1.547637
 H        -2.761306         0.745989         0.549759
 H        -2.999904        -1.836569         0.794614
 H        -4.112969        -1.518724        -0.634023
 H        -2.517277        -1.889603        -0.918556
 H        -2.909128        -0.094777        -2.370805
 H        -4.012301         0.612195        -1.264830
 H        -2.716889         3.669363        -2.634980
