19
Iteration:  1483
 C         1.159090         0.082899         1.187283
 C         0.002187         0.009526         0.290650
 C        -1.145101         0.203039        -0.102416
 C        -2.548137        -0.055628        -0.750108
 C        -2.999340        -1.536048        -0.505141
 C        -2.620007         0.318830        -2.189922
 O        -2.218137         1.669832        -2.671489
 C        -3.083509         2.627873        -2.346511
 O        -4.149016         2.446973        -1.761249
 H         0.906593         0.622373         2.092802
 H         1.638476        -0.896757         1.359777
 H         1.811892         0.705946         0.556859
 H        -3.241967         0.610639        -0.281990
 H        -3.090888        -2.140096        -1.414626
 H        -2.331783        -2.156713         0.050812
 H        -3.931563        -1.651534         0.000972
 H        -2.050205        -0.318271        -2.872740
 H        -3.705205         0.230988        -2.444682
 H        -2.533719         3.551734        -2.761677
