19
Iteration:  2688charge 0 multiplicity 1
 C         1.008880         0.471356         0.388067
 C        -0.345598         0.064308         0.283586
 C        -1.514684        -0.230176         0.180557
 C        -2.826749        -0.454322        -0.411916
 C        -2.825799        -1.979874        -0.823485
 C        -2.947563         0.458050        -1.690857
 O        -2.555656         1.841665        -1.197181
 C        -2.704676         2.785957        -2.122448
 O        -3.134547         2.670331        -3.246759
 H         1.480933         0.614713         1.377739
 H         1.720594        -0.196119        -0.082782
 H         1.113488         1.263823        -0.332553
 H        -3.715028        -0.289697         0.174187
 H        -3.788525        -2.431059        -1.029695
 H        -2.279792        -2.096205        -1.737173
 H        -2.354135        -2.599092        -0.111451
 H        -2.183459         0.218051        -2.481105
 H        -3.902160         0.409147        -2.159769
 H        -2.386578         3.769115        -1.771652
