19
Iteration:  2852charge 0 multiplicity 1
 C         1.296473        -0.091438         0.968854
 C        -0.017902         0.047438         0.426356
 C        -1.196509        -0.143112         0.052485
 C        -2.551705        -0.295485        -0.536356
 C        -2.843057        -1.832510        -0.879907
 C        -2.891424         0.575977        -1.721578
 O        -2.799924         1.982731        -1.315103
 C        -3.056815         2.859090        -2.342079
 O        -3.577303         2.586282        -3.416899
 H         2.020446         0.713718         0.772371
 H         1.247146        -0.058459         2.030243
 H         1.558206        -1.130701         0.633443
 H        -3.282625        -0.086776         0.271731
 H        -3.930086        -1.983176        -0.714748
 H        -2.441900        -2.053033        -1.877501
 H        -2.239611        -2.287287        -0.076698
 H        -2.234526         0.461769        -2.637403
 H        -3.877731         0.250287        -2.034393
 H        -2.876490         3.875764        -1.906260
