19
Iteration:  2467
 C         1.217973         0.081240         0.580173
 C        -0.089136         0.170369         0.064505
 C        -1.313780         0.241886        -0.096263
 C        -2.657287        -0.237473        -0.393951
 C        -2.607593        -1.732974        -0.814494
 C        -3.403945         0.475313        -1.497694
 O        -3.564975         1.857544        -1.329272
 C        -2.908905         2.683948        -2.163659
 O        -2.385446         2.286377        -3.170071
 H         2.015739         0.179071        -0.166469
 H         1.689933         0.889000         1.302019
 H         1.082016        -0.880073         1.137291
 H        -3.279987        -0.173629         0.546001
 H        -2.939830        -2.433992        -0.044634
 H        -3.391822        -1.768678        -1.537587
 H        -1.639360        -2.167253        -1.116184
 H        -2.961641         0.283930        -2.463480
 H        -4.455273         0.039571        -1.517188
 H        -2.973095         3.780795        -1.926414
