19
Iteration:  4556charge 0 multiplicity 1
 C         1.461360        -0.738569         0.806578
 C         0.042355        -0.294947         0.673375
 C        -1.081623        -0.087199         0.318377
 C        -2.369884         0.097635        -0.300693
 C        -2.705612        -1.165828        -0.990490
 C        -2.301714         1.211585        -1.322192
 O        -3.619379         1.247428        -1.873140
 C        -3.908591         2.351214        -2.636002
 O        -3.147637         3.091833        -3.233300
 H         1.355762        -1.893968         1.062781
 H         1.990959        -0.969103        -0.173952
 H         2.006354        -0.276444         1.585396
 H        -3.218410         0.389240         0.341916
 H        -3.798890        -1.332043        -0.920847
 H        -2.405776        -1.156081        -2.134266
 H        -2.014265        -1.901113        -0.463174
 H        -1.959816         2.136589        -0.747025
 H        -1.622970         1.030871        -2.124903
 H        -4.936268         2.295218        -2.946917
