19
Iteration:  1845
 C         1.499602         0.094780         0.677860
 C         0.018915         0.034441         0.423650
 C        -1.131989        -0.120618        -0.018323
 C        -2.637434        -0.181921        -0.293733
 C        -2.889945        -1.776535        -0.699738
 C        -3.105693         0.564815        -1.546693
 O        -2.915167         2.018621        -1.289169
 C        -3.081049         2.728360        -2.457170
 O        -3.437609         2.336533        -3.529323
 H         1.765035        -0.285511         1.662206
 H         2.062016        -0.612166         0.136823
 H         2.013883         1.118130         0.697896
 H        -3.281245         0.078171         0.597434
 H        -1.979356        -2.217235        -1.055975
 H        -2.936463        -2.363432         0.242324
 H        -3.821841        -1.927668        -1.234952
 H        -2.587012         0.261548        -2.505348
 H        -4.179690         0.530649        -1.733754
 H        -2.706361         3.852663        -2.379990
