19
Iteration:  2209charge 0 multiplicity 1
 C         0.893178         0.956239        -0.227603
 C        -0.397573         0.436514         0.086174
 C        -1.545790         0.078427        -0.081234
 C        -2.929269        -0.444660        -0.344102
 C        -3.033865        -1.934247        -0.809088
 C        -3.435991         0.392320        -1.526441
 O        -3.325801         1.762467        -1.147522
 C        -2.348296         2.431311        -1.862896
 O        -1.726017         2.056150        -2.819108
 H         1.689319         0.549152         0.317107
 H         1.233767         0.778111        -1.203768
 H         0.787476         2.078055        -0.225152
 H        -3.584671        -0.307674         0.535265
 H        -4.058762        -2.224103        -1.040918
 H        -2.447761        -2.160029        -1.696642
 H        -2.599210        -2.430755         0.033941
 H        -2.804292         0.222610        -2.369362
 H        -4.458613         0.050993        -1.748557
 H        -2.542065         3.572497        -1.556079
