19
Iteration:  2711
 C         1.105022         0.485244         0.535691
 C        -0.274865         0.015774         0.341222
 C        -1.424827        -0.115377         0.028767
 C        -2.753929        -0.450300        -0.466626
 C        -2.896463        -1.939103        -0.931220
 C        -3.135256         0.502272        -1.568097
 O        -2.493038         1.778447        -1.275283
 C        -2.710133         2.748202        -2.141088
 O        -3.190024         2.629543        -3.244005
 H         1.296002         0.781124         1.574541
 H         1.903621        -0.305778         0.536081
 H         1.487158         1.129498        -0.216141
 H        -3.532928        -0.346547         0.283913
 H        -3.906507        -2.215325        -1.143889
 H        -2.327034        -2.141409        -1.823601
 H        -2.537019        -2.595937        -0.166634
 H        -2.796255         0.100066        -2.563628
 H        -4.201481         0.604289        -1.668690
 H        -2.576938         3.737701        -1.712349
