19
Iteration:  4065
 C         1.448793        -0.625222         0.968068
 C         0.106105        -0.536324         0.498081
 C        -0.990434        -0.264300         0.089435
 C        -2.327667         0.164294        -0.437965
 C        -3.007570        -0.779119        -1.346836
 C        -2.111655         1.515920        -1.046424
 O        -3.429192         2.094898        -1.255513
 C        -3.895531         2.029782        -2.516098
 O        -3.381303         1.937108        -3.624499
 H         1.656560        -1.622606         1.136696
 H         2.210477        -0.277562         0.175630
 H         1.659070        -0.015886         1.861595
 H        -2.909637         0.344944         0.432061
 H        -3.090298        -1.705644        -0.753852
 H        -3.896429        -0.251578        -1.673097
 H        -2.435192        -0.858345        -2.258970
 H        -1.505586         2.189330        -0.413844
 H        -1.697313         1.551864        -2.129743
 H        -4.926630         2.283150        -2.431924
