19
Iteration:  1608
 C         1.373592         0.004713         0.849466
 C         0.043184        -0.126119         0.352530
 C        -1.143334         0.019767         0.186538
 C        -2.482591        -0.042997        -0.500615
 C        -3.145877        -1.438950        -0.620882
 C        -2.396151         0.470903        -1.942524
 O        -2.212443         1.872719        -1.981847
 C        -3.287357         2.680540        -2.317537
 O        -4.340195         2.276094        -2.744662
 H         1.959452         0.759261         0.270175
 H         1.354120         0.243844         1.905843
 H         1.762640        -1.040750         0.779726
 H        -3.216103         0.572760         0.104441
 H        -2.778824        -2.143724         0.121509
 H        -4.223474        -1.260841        -0.463880
 H        -3.277549        -2.043403        -1.565033
 H        -1.475024         0.061356        -2.435514
 H        -3.251338         0.090702        -2.507487
 H        -2.776914         3.795698        -2.303308
