19
Iteration:  2985
 C         1.391293        -0.243220         0.969382
 C         0.097788        -0.151493         0.457385
 C        -1.099953        -0.203601         0.124886
 C        -2.364349        -0.190691        -0.495429
 C        -2.964950        -1.525275        -0.959837
 C        -2.613653         0.720220        -1.746195
 O        -3.184381         1.982752        -1.262573
 C        -3.354056         2.823985        -2.322660
 O        -3.483756         2.438503        -3.467578
 H         2.092049        -1.049943         0.623450
 H         1.972706         0.633964         1.061348
 H         1.385005        -0.458094         2.060456
 H        -2.995570         0.090980         0.385331
 H        -4.080215        -1.484822        -1.020791
 H        -2.625439        -1.721415        -2.025413
 H        -2.737074        -2.452443        -0.328207
 H        -1.759524         1.041132        -2.347128
 H        -3.259982         0.249899        -2.568018
 H        -3.638478         3.887912        -2.121711
