19
Iteration:  1769charge 0 multiplicity 1
 C         1.374278        -0.160304         0.890911
 C         0.034932        -0.028202         0.372785
 C        -1.060601         0.040400        -0.112762
 C        -2.416295        -0.112417        -0.481413
 C        -2.816920        -1.635118        -0.482727
 C        -2.945607         0.513777        -1.630188
 O        -2.742982         1.936223        -1.452499
 C        -3.190296         2.711152        -2.467588
 O        -3.853379         2.430764        -3.408387
 H         1.726341        -1.151818         0.987047
 H         2.186408         0.230886         0.292394
 H         1.418560         0.518828         1.833148
 H        -2.938764         0.505352         0.275940
 H        -3.270482        -1.982834         0.443065
 H        -3.474182        -1.811088        -1.357489
 H        -1.854525        -2.231065        -0.605552
 H        -2.335810         0.279410        -2.576306
 H        -3.996571         0.233213        -1.849253
 H        -2.904718         3.823675        -2.381131
