19
Iteration:  2607charge 0 multiplicity 1
 C         1.097771         0.569851         0.294387
 C        -0.197528         0.058745         0.317905
 C        -1.335894        -0.286005         0.046450
 C        -2.710611        -0.479162        -0.375893
 C        -3.084697        -1.953311        -0.740055
 C        -2.842348         0.430593        -1.729750
 O        -2.911204         1.800198        -1.191343
 C        -3.024846         2.826000        -2.085982
 O        -2.728550         2.655294        -3.246957
 H         1.790377        -0.172454         0.740448
 H         1.530739         0.570626        -0.623992
 H         1.437764         1.401845         0.978060
 H        -3.546372        -0.123984         0.218264
 H        -3.749328        -1.904601        -1.621119
 H        -2.105862        -2.389009        -0.968401
 H        -3.606922        -2.339957         0.165912
 H        -2.057040         0.197753        -2.404864
 H        -3.819721         0.059642        -2.119609
 H        -3.660682         3.647108        -1.697593
