19
Iteration:  4952charge 0 multiplicity 1
 C         1.181980         0.196040         1.176639
 C         0.117303        -0.168995         0.240959
 C        -1.028813        -0.313683        -0.093355
 C        -2.353870        -0.106195        -0.778883
 C        -3.522836        -1.181157        -0.730742
 C        -2.071035         0.579057        -2.225983
 O        -3.385173         1.031719        -2.623708
 C        -3.596730         2.424213        -2.307057
 O        -2.889934         3.065872        -1.582416
 H         2.142673        -0.104479         0.884428
 H         1.273259         1.393697         1.118534
 H         1.068119        -0.106257         2.224814
 H        -2.870718         0.652262        -0.124471
 H        -4.377520        -0.568355        -0.684160
 H        -3.618288        -1.699736        -1.703269
 H        -3.365877        -1.916858         0.062336
 H        -1.485990         1.367995        -2.017758
 H        -1.669786        -0.196319        -2.849964
 H        -4.618398         2.677312        -2.620382
