19
Iteration:  4565charge 0 multiplicity 1
 C         1.374464        -0.841789         0.763989
 C         0.049823        -0.218847         0.700597
 C        -1.088520        -0.065723         0.317679
 C        -2.365189         0.166143        -0.301810
 C        -2.708079        -1.185627        -1.007093
 C        -2.217644         1.198154        -1.305370
 O        -3.578237         1.248568        -1.936010
 C        -3.932128         2.275930        -2.677803
 O        -3.172080         3.086384        -3.155126
 H         1.409236        -1.821173         1.321818
 H         1.819154        -0.704333        -0.204514
 H         2.038740        -0.208049         1.332716
 H        -3.048328         0.542415         0.519628
 H        -3.726829        -1.433270        -0.818562
 H        -2.486612        -1.078701        -2.132167
 H        -2.104067        -1.985825        -0.544164
 H        -2.051361         2.205404        -0.791245
 H        -1.387841         1.105335        -1.998467
 H        -5.049715         2.313717        -2.748714
