19
Iteration:  3537
 C         1.324108        -0.255394         1.292431
 C         0.191629        -0.305178         0.392192
 C        -0.915735        -0.261743        -0.093315
 C        -2.252996        -0.170178        -0.590215
 C        -3.160375        -1.545706        -0.814366
 C        -2.393347         0.700020        -1.931621
 O        -2.982130         1.992719        -1.411310
 C        -3.567949         2.843652        -2.243622
 O        -3.722406         2.576802        -3.404673
 H         1.743770        -1.252749         1.566851
 H         2.128405         0.452500         0.868524
 H         0.917291         0.215906         2.187777
 H        -2.819726         0.402245         0.203576
 H        -4.101359        -1.360620        -1.357849
 H        -2.624964        -2.282348        -1.491383
 H        -3.302431        -2.088857         0.116956
 H        -1.520107         1.041101        -2.505662
 H        -3.032854         0.215393        -2.607387
 H        -4.044187         3.715702        -1.708400
