19
Iteration:  1843
 C         1.508150         0.094992         0.685214
 C         0.007772         0.039422         0.427770
 C        -1.128280        -0.128967        -0.030981
 C        -2.632306        -0.179874        -0.294484
 C        -2.878444        -1.793581        -0.693997
 C        -3.108368         0.568520        -1.533977
 O        -2.907502         2.035757        -1.307255
 C        -3.086574         2.736294        -2.456951
 O        -3.447045         2.341410        -3.529346
 H         1.730282        -0.395668         1.679019
 H         2.099433        -0.648069         0.124722
 H         1.955033         1.103552         0.702731
 H        -3.263063         0.042471         0.615691
 H        -1.954084        -2.202549        -1.032603
 H        -3.023973        -2.323886         0.302464
 H        -3.767612        -1.923911        -1.308624
 H        -2.584801         0.244111        -2.426613
 H        -4.173970         0.488923        -1.737967
 H        -2.753876         3.778423        -2.404235
