19
Iteration:  2586charge 0 multiplicity 1
 C         1.220876         0.497064         0.490824
 C        -0.118804         0.094735         0.145234
 C        -1.292323        -0.295163        -0.030422
 C        -2.666683        -0.470793        -0.455599
 C        -3.107070        -1.993759        -0.691995
 C        -2.991705         0.515425        -1.648131
 O        -3.126228         1.828327        -1.129628
 C        -2.970479         2.760054        -2.135316
 O        -2.691394         2.648900        -3.312551
 H         2.142881        -0.065844         0.641775
 H         1.643878         0.939035        -0.388629
 H         1.269520         1.297212         1.311310
 H        -3.347957        -0.196524         0.355994
 H        -3.948233        -2.078798        -1.412620
 H        -2.273461        -2.468815        -1.184499
 H        -3.458332        -2.386215         0.279995
 H        -2.113864         0.421237        -2.253059
 H        -3.808386         0.081600        -2.272784
 H        -3.118857         3.763848        -1.723603
