19
Iteration:  2737charge 0 multiplicity 1
 C         1.207733         0.440231         0.761613
 C        -0.157395         0.100315         0.325397
 C        -1.268857        -0.265912        -0.139958
 C        -2.667290        -0.468044        -0.452496
 C        -2.970973        -1.854042        -0.988838
 C        -3.240503         0.549818        -1.474435
 O        -2.621913         1.795272        -1.297739
 C        -2.693042         2.732371        -2.239421
 O        -3.296565         2.632784        -3.276389
 H         1.113833         0.921335         1.721270
 H         1.876486        -0.355757         1.198255
 H         1.921557         0.829174         0.061263
 H        -3.320073        -0.369563         0.457691
 H        -3.982266        -1.973291        -1.456385
 H        -2.238610        -2.186084        -1.791580
 H        -2.881473        -2.728466        -0.259109
 H        -3.054432         0.152524        -2.465299
 H        -4.375094         0.638254        -1.390733
 H        -2.090761         3.643746        -2.024374
