19
Iteration:  3013charge 0 multiplicity 1
 C         1.446358        -0.225206         1.085043
 C         0.086135        -0.282048         0.533408
 C        -0.964128        -0.251071        -0.131627
 C        -2.419585        -0.244007        -0.454971
 C        -2.958502        -1.621621        -0.979218
 C        -2.802983         0.775977        -1.649828
 O        -3.073039         2.166793        -1.281500
 C        -3.522266         2.844495        -2.362994
 O        -3.398814         2.438904        -3.486322
 H         2.151401        -1.072922         0.957746
 H         1.953466         0.762171         0.662417
 H         1.297659         0.058782         2.192652
 H        -2.939446        -0.013733         0.547219
 H        -4.024391        -1.830420        -0.816870
 H        -2.671121        -1.838489        -1.985132
 H        -2.526590        -2.487989        -0.478088
 H        -1.935609         0.803027        -2.387423
 H        -3.443180         0.343466        -2.373579
 H        -3.918342         3.866830        -2.147995
