19
Iteration:   253
 C         1.131436         0.496187        -0.842320
 C        -0.205365         0.215657        -0.330797
 C        -1.362258         0.098792        -0.019971
 C        -2.763090        -0.139465         0.014184
 C        -3.266686        -1.609297         0.229305
 C        -3.571672         0.481424        -1.178041
 O        -3.419900         1.927892        -1.324705
 C        -2.391847         2.426508        -2.219150
 O        -1.904217         1.859712        -3.160502
 H         1.772647        -0.521843        -0.857598
 H         0.936027         1.027243        -1.717601
 H         1.682865         1.091653        -0.197272
 H        -3.125615         0.310986         1.042767
 H        -2.697424        -2.014170         1.053981
 H        -4.243285        -1.410137         0.602815
 H        -3.249593        -2.277772        -0.617611
 H        -3.197164         0.037431        -2.072183
 H        -4.633196         0.259359        -1.029241
 H        -2.094353         3.476086        -1.916349
