19
Iteration:  2551
 C         1.250490         0.377402         0.684204
 C        -0.039448         0.088566         0.046597
 C        -1.154174        -0.194312        -0.235969
 C        -2.633175        -0.348589        -0.447790
 C        -2.993989        -1.819306        -0.677821
 C        -3.223335         0.417534        -1.616973
 O        -3.344570         1.793002        -1.219141
 C        -2.883477         2.760567        -2.116654
 O        -2.642193         2.569021        -3.295777
 H         1.992206        -0.417474         0.594924
 H         1.425374         1.282594         0.202451
 H         1.167777         0.695550         1.751233
 H        -3.142735        -0.048223         0.472623
 H        -4.080825        -1.889030        -0.610731
 H        -2.583906        -2.220824        -1.652021
 H        -2.430030        -2.454862         0.033029
 H        -2.578920         0.388952        -2.488255
 H        -4.251086         0.051811        -1.829956
 H        -2.813896         3.669988        -1.500089
