19
Iteration:  3904charge 0 multiplicity 1
 C         1.434140        -0.588256         0.420410
 C        -0.001498        -0.380254         0.581298
 C        -1.205899        -0.262806         0.440451
 C        -2.427168         0.116562        -0.259313
 C        -2.872633        -0.818850        -1.337360
 C        -2.214521         1.541432        -0.978235
 O        -3.510660         1.952923        -1.320813
 C        -3.843227         2.116622        -2.600394
 O        -3.021060         1.975634        -3.477070
 H         1.641912        -0.239519        -0.614520
 H         2.137546         0.074116         0.980715
 H         1.749747        -1.699352         0.424185
 H        -3.260886         0.297216         0.514176
 H        -3.336263        -0.565044        -2.265745
 H        -2.125827        -1.608319        -1.416018
 H        -3.575734        -1.540804        -0.975164
 H        -1.862816         2.142975        -0.193356
 H        -1.552173         1.595695        -1.784099
 H        -4.971031         2.208149        -2.727543
