19
Iteration:   922charge 0 multiplicity 1
 C         1.367955         0.023585         0.848331
 C        -0.037241        -0.056261         0.256633
 C        -1.185088        -0.025876        -0.149485
 C        -2.537390        -0.051483        -0.710782
 C        -3.148378        -1.382240        -0.126150
 C        -2.617055         0.375787        -2.180213
 O        -2.103211         1.699449        -2.316708
 C        -3.107590         2.677759        -2.304020
 O        -4.271169         2.433273        -2.194674
 H         1.989586        -0.226021        -0.062620
 H         1.702464         1.041200         1.164977
 H         1.523206        -0.770423         1.771519
 H        -3.012696         0.689103        -0.037342
 H        -2.702345        -1.461338         0.883289
 H        -4.238920        -1.350105        -0.046238
 H        -2.843252        -2.301212        -0.605546
 H        -2.017710        -0.218182        -2.905983
 H        -3.683004         0.313178        -2.544947
 H        -2.773839         3.652606        -2.684755
