19
Iteration:  4752charge 0 multiplicity 1
 C         1.458977        -0.510335         0.995471
 C         0.065888        -0.458151         0.663175
 C        -1.046498        -0.144997         0.179595
 C        -2.306215         0.173016        -0.479281
 C        -3.092959        -1.113076        -0.662059
 C        -2.019020         0.830535        -1.854408
 O        -3.268323         1.114332        -2.623532
 C        -3.921567         2.299480        -2.657513
 O        -3.466919         3.371256        -2.277497
 H         1.725373         0.514391         1.451973
 H         1.572987        -1.210319         1.846471
 H         2.221255        -0.761831         0.265406
 H        -2.880283         0.980562         0.083688
 H        -4.136934        -0.687951        -0.900713
 H        -2.641274        -1.761375        -1.414235
 H        -3.306465        -1.502713         0.350846
 H        -1.293788         1.714976        -1.619713
 H        -1.411638         0.102674        -2.445468
 H        -4.984508         2.156113        -3.062694
