19
Iteration:  2552
 C         1.248507         0.377396         0.678541
 C        -0.043709         0.088573         0.044322
 C        -1.159034        -0.200376        -0.230605
 C        -2.630574        -0.350913        -0.449575
 C        -3.001345        -1.825753        -0.678369
 C        -3.213558         0.416167        -1.619478
 O        -3.342447         1.800270        -1.222285
 C        -2.887183         2.765107        -2.116601
 O        -2.645159         2.567918        -3.291969
 H         2.025115        -0.409583         0.620634
 H         1.460693         1.322912         0.181613
 H         1.170646         0.711782         1.770407
 H        -3.159638        -0.067457         0.466745
 H        -4.087385        -1.864135        -0.631102
 H        -2.556080        -2.213267        -1.623175
 H        -2.433637        -2.450245         0.036490
 H        -2.553426         0.376410        -2.464329
 H        -4.246328         0.022032        -1.810209
 H        -2.785988         3.671130        -1.496670
