19
Iteration:  4653
 C         1.465830        -0.821429         0.976882
 C         0.174907        -0.526408         0.451770
 C        -0.883253        -0.032171         0.156404
 C        -2.201764         0.157846        -0.299143
 C        -2.949247        -1.312663        -0.587643
 C        -2.343440         1.329797        -1.385483
 O        -3.457147         1.143655        -2.357429
 C        -3.852464         2.261928        -2.946262
 O        -3.478520         3.402011        -2.767922
 H         1.353282        -0.878005         2.119112
 H         1.806827        -1.834056         0.823862
 H         2.194065        -0.090779         0.798307
 H        -2.781180         0.562413         0.623856
 H        -3.733310        -1.048432        -1.269543
 H        -2.217980        -2.078205        -1.041160
 H        -3.334411        -1.664015         0.401246
 H        -2.486063         2.352773        -0.869356
 H        -1.390631         1.521377        -1.869033
 H        -4.605198         1.981016        -3.764265
