19
Iteration:  2421
 C         1.247165         0.202044         0.327626
 C        -0.243443         0.226852         0.333786
 C        -1.384301         0.018996        -0.038415
 C        -2.719068        -0.286176        -0.362174
 C        -2.673415        -1.779132        -0.776608
 C        -3.379963         0.451256        -1.535455
 O        -3.539806         1.931558        -1.345267
 C        -2.918769         2.708628        -2.238112
 O        -2.205763         2.281809        -3.118438
 H         1.601538         0.995474        -0.308519
 H         1.615260         0.618686         1.331939
 H         1.583034        -0.905326         0.279341
 H        -3.333788        -0.196588         0.554086
 H        -1.880802        -2.176562        -0.209919
 H        -3.545368        -2.409168        -0.703361
 H        -2.187538        -1.788957        -1.762576
 H        -2.903545         0.316727        -2.501479
 H        -4.423426         0.091231        -1.544807
 H        -2.946867         3.767229        -1.868724
