19
Iteration:  3218
 C         1.124064         0.496468         0.793044
 C        -0.257246         0.102706         0.438774
 C        -1.250823        -0.417891         0.034898
 C        -2.599981        -0.528457        -0.517766
 C        -3.208884        -1.831319        -1.075913
 C        -2.687832         0.423168        -1.691598
 O        -2.255610         1.940575        -1.405194
 C        -2.849399         2.822008        -2.211728
 O        -3.691439         2.570978        -3.051113
 H         0.990343         1.221054         1.564300
 H         1.825409        -0.414630         0.881956
 H         1.455402         1.000363        -0.129137
 H        -3.180608        -0.260074         0.357925
 H        -4.075656        -1.672163        -1.797550
 H        -2.443449        -2.363815        -1.692775
 H        -3.645665        -2.530121        -0.310068
 H        -2.023548        -0.053709        -2.489779
 H        -3.755535         0.488586        -1.958207
 H        -2.441663         3.833539        -1.981923
