19
Iteration:  3745
 C         1.521001        -0.920986         0.924657
 C         0.284824        -0.551398         0.251263
 C        -0.882986        -0.212961         0.117357
 C        -2.242921         0.255631        -0.269846
 C        -2.991139        -0.829332        -0.997194
 C        -2.314667         1.581445        -0.967436
 O        -3.681285         1.740428        -1.441449
 C        -3.929297         2.062524        -2.732264
 O        -3.266766         2.479433        -3.644977
 H         1.511427        -0.166779         1.819258
 H         1.390852        -1.860344         1.571206
 H         2.534047        -0.942734         0.464469
 H        -2.854029         0.463255         0.668870
 H        -4.037346        -0.696306        -0.945793
 H        -2.816003        -0.669926        -2.116296
 H        -2.499723        -1.772514        -0.716067
 H        -1.916992         2.394210        -0.269917
 H        -1.720480         1.638099        -1.863592
 H        -4.997861         1.700042        -2.800484
