19
Iteration:  1002
 C         1.332140         0.085143         0.896607
 C        -0.069503         0.026606         0.369029
 C        -1.219881         0.145039        -0.108227
 C        -2.549437        -0.113312        -0.608245
 C        -2.985681        -1.538465        -0.358321
 C        -2.769236         0.249666        -2.153081
 O        -2.332047         1.550750        -2.738614
 C        -3.024322         2.584170        -2.416054
 O        -4.022389         2.718789        -1.723624
 H         1.795202        -0.816702         1.298920
 H         1.995517         0.635632         0.153259
 H         1.218865         0.884865         1.854249
 H        -3.160275         0.482227         0.125887
 H        -3.872258        -1.593156         0.253113
 H        -3.438408        -1.950853        -1.262250
 H        -2.256328        -2.298896        -0.035775
 H        -2.103197        -0.329502        -2.829013
 H        -3.820570         0.160316        -2.496061
 H        -2.479834         3.481927        -2.759829
