19
Iteration:  4587charge 0 multiplicity 1
 C         1.410561        -0.902399         0.742592
 C         0.091744        -0.222566         0.718210
 C        -1.071206         0.098821         0.433934
 C        -2.331054         0.125890        -0.291042
 C        -2.808058        -1.238872        -0.995862
 C        -2.249657         1.326271        -1.377312
 O        -3.489796         1.154447        -2.028065
 C        -3.898448         2.212281        -2.726648
 O        -3.259447         3.178300        -3.026790
 H         1.149992        -1.667501         1.553058
 H         1.672854        -1.248607        -0.259428
 H         2.297543        -0.446293         1.103755
 H        -3.153852         0.469597         0.438803
 H        -3.813561        -1.351198        -0.679380
 H        -2.637525        -1.093643        -2.122144
 H        -2.201657        -2.024396        -0.521042
 H        -1.965130         2.361891        -0.961535
 H        -1.462149         1.179115        -2.113599
 H        -4.862436         1.943335        -3.241120
