19
Iteration:  2725
 C         1.179983         0.429020         0.725876
 C        -0.173664         0.074362         0.308047
 C        -1.307712        -0.176771        -0.048917
 C        -2.744240        -0.477962        -0.440339
 C        -2.937848        -1.920734        -0.981835
 C        -3.242644         0.505609        -1.584984
 O        -2.511962         1.764463        -1.231211
 C        -2.744331         2.753446        -2.195665
 O        -3.253679         2.632549        -3.302614
 H         1.223544         1.218798         1.447796
 H         1.760196        -0.555380         0.717765
 H         1.393056         1.107624        -0.052621
 H        -3.234133        -0.209817         0.527667
 H        -3.970634        -1.939093        -1.324130
 H        -2.218319        -1.960996        -1.840943
 H        -2.761104        -2.643883        -0.124111
 H        -3.000890         0.246636        -2.614776
 H        -4.342140         0.772853        -1.453920
 H        -2.159987         3.597089        -1.756139
