19
Iteration:  2407
 C         1.174752         0.303456         0.350930
 C        -0.231331         0.248820         0.291180
 C        -1.368291        -0.022644        -0.013997
 C        -2.742506        -0.357868        -0.367113
 C        -2.681448        -1.900458        -0.735454
 C        -3.418593         0.478928        -1.502948
 O        -3.555947         1.944393        -1.301574
 C        -2.814935         2.705029        -2.219799
 O        -2.124320         2.354533        -3.170090
 H         1.494432         1.032251        -0.470400
 H         1.576305         0.439888         1.344289
 H         1.672072        -0.546723        -0.322356
 H        -3.374824        -0.176157         0.504434
 H        -1.829071        -2.491873        -0.240324
 H        -3.680523        -2.309490        -0.387438
 H        -2.634476        -2.123391        -1.839451
 H        -2.839252         0.312363        -2.474345
 H        -4.430150         0.146005        -1.730528
 H        -3.286741         3.710924        -2.089697
