19
Iteration:   720charge 0 multiplicity 1
 C         1.553909        -0.312158         0.582374
 C         0.082345         0.012553         0.381167
 C        -1.087207         0.043435        -0.000494
 C        -2.457730        -0.038972        -0.423908
 C        -3.015565        -1.444418        -0.062554
 C        -2.839089         0.495634        -1.846862
 O        -2.391620         1.887985        -1.832132
 C        -3.152134         2.693438        -2.580017
 O        -4.268766         2.402283        -3.015068
 H         1.612415        -0.803644         1.678239
 H         2.035645        -1.014074        -0.120364
 H         2.033509         0.625802         0.703403
 H        -2.973326         0.565541         0.308698
 H        -2.418251        -1.865332         0.759145
 H        -3.959693        -1.182181         0.338933
 H        -2.956716        -2.213104        -0.835123
 H        -2.359520        -0.006264        -2.661388
 H        -3.909481         0.477267        -1.977507
 H        -2.783704         3.615743        -2.880970
