19
Iteration:  2809
 C         1.155612         0.150057         1.025871
 C        -0.026863        -0.155390         0.298611
 C        -1.125370        -0.160943        -0.326736
 C        -2.533542        -0.316121        -0.533093
 C        -2.865353        -1.738050        -0.952791
 C        -3.171843         0.643082        -1.494778
 O        -2.611485         1.945039        -1.277280
 C        -2.980572         2.767025        -2.287739
 O        -3.466485         2.457649        -3.359724
 H         1.144248         1.218431         1.397985
 H         0.986049        -0.174784         2.097467
 H         2.185932        -0.288073         0.916063
 H        -2.914506         0.004098         0.449196
 H        -3.950127        -1.854721        -0.778399
 H        -2.579177        -1.986478        -1.995151
 H        -2.286229        -2.455103        -0.336313
 H        -2.990000         0.309371        -2.578132
 H        -4.205767         0.887935        -1.279963
 H        -2.777980         3.850995        -2.098752
