19
Iteration:  2068charge 0 multiplicity 1
 C         1.174984         0.808826         0.131001
 C        -0.150724         0.380340        -0.089101
 C        -1.299464         0.026454        -0.167784
 C        -2.729119        -0.411245        -0.401774
 C        -3.029755        -1.891807        -0.676289
 C        -3.573901         0.393775        -1.399765
 O        -3.553203         1.848423        -1.242465
 C        -2.600633         2.485255        -1.999706
 O        -1.959476         2.083529        -2.968244
 H         1.674401         0.918222        -0.853095
 H         1.249514         1.818692         0.562168
 H         1.800113         0.180537         0.845402
 H        -3.290647        -0.175592         0.549507
 H        -2.191018        -2.527009        -0.878922
 H        -3.662272        -2.378990         0.054470
 H        -3.696463        -1.884807        -1.528283
 H        -3.163620         0.199811        -2.381074
 H        -4.668229         0.146746        -1.496243
 H        -2.539666         3.513497        -1.881442
