19
Iteration:   238
 C         1.137733         0.472899        -0.879662
 C        -0.230429         0.348463        -0.383843
 C        -1.386225         0.146420        -0.082283
 C        -2.879049        -0.089685         0.048701
 C        -3.302003        -1.556068         0.286051
 C        -3.568146         0.402646        -1.278128
 O        -3.263769         1.852249        -1.261307
 C        -2.459225         2.366503        -2.154835
 O        -1.831869         1.835652        -3.066449
 H         1.503336        -0.446586        -1.208836
 H         1.163080         1.175128        -1.806499
 H         1.938668         0.954556        -0.167957
 H        -3.263401         0.630733         0.722068
 H        -2.577410        -2.208835         0.789166
 H        -4.316359        -1.767043         0.695620
 H        -3.373087        -1.935386        -0.754605
 H        -3.274621        -0.121437        -2.213889
 H        -4.657866         0.365493        -1.125741
 H        -2.545478         3.468561        -1.978542
