19
Iteration:  3099charge 0 multiplicity 1
 C         1.287540        -0.159882         0.993805
 C        -0.133495         0.122605         0.457224
 C        -1.176343        -0.010644        -0.119849
 C        -2.506146        -0.356159        -0.540556
 C        -2.708280        -1.874561        -0.743522
 C        -2.881329         0.484255        -1.854890
 O        -2.849878         1.873525        -1.353526
 C        -3.078821         2.812507        -2.257046
 O        -3.612087         2.814216        -3.350857
 H         1.081873        -1.070210         1.518821
 H         1.837798        -0.434088        -0.022713
 H         1.921774         0.458172         1.596363
 H        -3.257720         0.080655         0.142736
 H        -3.678236        -1.977561        -1.221304
 H        -1.932481        -2.294798        -1.338527
 H        -2.797013        -2.294590         0.242450
 H        -2.037623         0.530482        -2.603438
 H        -3.895126         0.265218        -2.184025
 H        -2.718760         3.767718        -1.719406
