19
Iteration:  1998charge 0 multiplicity 1
 C         1.211672         0.691258         0.238648
 C        -0.188331         0.260773         0.012645
 C        -1.347992        -0.203688        -0.049979
 C        -2.793272        -0.478405        -0.290358
 C        -3.042325        -2.007322        -0.370111
 C        -3.313821         0.379527        -1.676423
 O        -3.211366         1.804577        -1.268967
 C        -2.690504         2.755880        -2.120654
 O        -2.409482         2.453629        -3.260773
 H         1.228181         1.666171        -0.285979
 H         1.633216         0.854982         1.270462
 H         2.041284        -0.004731        -0.220128
 H        -3.384033        -0.083820         0.583648
 H        -2.850107        -2.403782         0.658566
 H        -3.988983        -2.378716        -0.782202
 H        -2.315844        -2.498767        -1.065163
 H        -2.643569         0.243727        -2.578293
 H        -4.314426         0.205763        -2.021960
 H        -2.701371         3.721393        -1.639436
