19
Iteration:   300charge 0 multiplicity 1
 C         1.245226         0.429045        -0.603507
 C        -0.111281         0.039719        -0.316892
 C        -1.334302         0.035694        -0.133477
 C        -2.778544        -0.074223        -0.047732
 C        -3.216487        -1.531906         0.136239
 C        -3.496416         0.566175        -1.150662
 O        -3.241103         1.967061        -1.208397
 C        -2.643335         2.418065        -2.284484
 O        -2.162103         1.824056        -3.244880
 H         1.879427        -0.124125         0.168953
 H         1.470383         0.389414        -1.665631
 H         1.343716         1.480670        -0.274337
 H        -3.174583         0.457207         0.873657
 H        -3.178363        -1.709566         1.235974
 H        -4.262798        -1.659320        -0.167454
 H        -2.481606        -2.153031        -0.393910
 H        -3.308830         0.197741        -2.219692
 H        -4.566852         0.596522        -0.924909
 H        -2.438398         3.487096        -2.207592
