19
Iteration:   914charge 0 multiplicity 1
 C         1.352046         0.050085         0.795492
 C        -0.032534        -0.134919         0.268671
 C        -1.193143        -0.031331        -0.125776
 C        -2.506210         0.023674        -0.708372
 C        -3.152045        -1.386819        -0.134375
 C        -2.551107         0.329880        -2.139424
 O        -2.154649         1.717517        -2.289940
 C        -3.101067         2.645959        -2.299706
 O        -4.304813         2.452479        -2.244779
 H         2.046355        -0.156920         0.020469
 H         1.618770         1.009548         1.338413
 H         1.571323        -0.868876         1.522522
 H        -3.026261         0.971186        -0.346469
 H        -2.598026        -1.409818         0.797323
 H        -4.211558        -1.300833         0.080660
 H        -2.965233        -2.170060        -0.857611
 H        -1.832239        -0.353662        -2.616609
 H        -3.632697         0.203345        -2.434953
 H        -2.638345         3.624684        -2.465463
