19
Iteration:  2986charge 0 multiplicity 1
 C         1.397227        -0.239031         0.981143
 C         0.100231        -0.160214         0.458822
 C        -1.099030        -0.208230         0.116447
 C        -2.362739        -0.196702        -0.497494
 C        -2.965653        -1.521783        -0.964434
 C        -2.619866         0.726887        -1.737633
 O        -3.186040         1.985269        -1.254225
 C        -3.348417         2.825238        -2.327565
 O        -3.484103         2.435526        -3.472422
 H         2.061083        -1.061375         0.613488
 H         2.023572         0.677477         1.039264
 H         1.373618        -0.454582         2.053638
 H        -3.017907         0.134294         0.358735
 H        -4.060553        -1.502427        -0.990120
 H        -2.638860        -1.729841        -2.020202
 H        -2.742698        -2.435567        -0.360029
 H        -1.797974         1.027568        -2.367437
 H        -3.258323         0.236180        -2.566132
 H        -3.671446         3.897550        -2.118381
