19
Iteration:  2107charge 0 multiplicity 1
 C         1.144408         0.839290        -0.009465
 C        -0.281429         0.443079        -0.068417
 C        -1.411628         0.057389        -0.299103
 C        -2.788094        -0.310666        -0.415065
 C        -2.866131        -1.817006        -0.771406
 C        -3.743134         0.423052        -1.438827
 O        -3.545550         1.889331        -1.253759
 C        -2.509253         2.418146        -1.913527
 O        -1.799649         1.822044        -2.701530
 H         1.742791         0.228539        -0.684530
 H         1.195481         1.929478        -0.182327
 H         1.570403         0.733154         1.026802
 H        -3.153044        -0.155957         0.598668
 H        -2.137627        -2.004797        -1.575963
 H        -2.712826        -2.452798         0.130758
 H        -3.870030        -2.056115        -1.242900
 H        -3.370056         0.196132        -2.454597
 H        -4.772492         0.162256        -1.252026
 H        -2.699871         3.614217        -1.703258
