19
Iteration:  4463
 C         1.424410        -0.344445         1.142875
 C         0.242831        -0.254299         0.363429
 C        -0.880359        -0.299948        -0.081290
 C        -2.332398        -0.071892        -0.525783
 C        -3.179684        -1.307481        -1.219694
 C        -2.305232         1.148191        -1.241229
 O        -3.675663         1.551580        -1.412221
 C        -3.814347         2.446215        -2.479129
 O        -3.002394         2.705531        -3.364577
 H         2.143503        -1.037949         0.871103
 H         1.965355         0.577874         1.224827
 H         0.916256        -0.558588         2.160626
 H        -2.901241         0.162430         0.436032
 H        -3.756449        -0.894427        -2.051013
 H        -2.491939        -2.008505        -1.499287
 H        -3.733523        -1.592229        -0.349589
 H        -1.769998         1.923544        -0.706714
 H        -1.698960         0.988239        -2.258012
 H        -4.913975         2.752560        -2.553709
