19
Iteration:  4246charge 0 multiplicity 1
 C         1.448440        -0.980512         1.299836
 C         0.230173        -0.554694         0.576297
 C        -0.845475        -0.230040         0.137900
 C        -2.100233         0.247209        -0.410047
 C        -2.785825        -0.784626        -1.396861
 C        -2.113632         1.634062        -1.151356
 O        -3.598659         1.823967        -1.392215
 C        -4.059922         2.122890        -2.627061
 O        -3.596521         2.341096        -3.722974
 H         1.662975        -0.201251         2.034898
 H         1.378157        -1.817473         1.933301
 H         2.325065        -1.292258         0.643920
 H        -2.780011         0.337630         0.431408
 H        -3.512954        -0.198744        -2.089851
 H        -2.189548        -1.471859        -1.946203
 H        -3.648349        -1.284516        -0.839358
 H        -1.907533         2.486779        -0.572098
 H        -1.589190         1.492158        -2.128072
 H        -5.138871         2.079769        -2.417217
