19
Iteration:   426
 C         1.408208         0.112344        -0.062244
 C        -0.046606         0.148964        -0.076849
 C        -1.205575        -0.118227        -0.188581
 C        -2.667259        -0.083163         0.025274
 C        -3.069731        -1.592968        -0.008880
 C        -3.398787         0.672495        -1.233231
 O        -2.930366         2.034871        -1.228582
 C        -2.781781         2.554228        -2.471025
 O        -2.992685         1.998813        -3.540414
 H         1.741624         0.973259         0.435212
 H         1.881301        -0.784915         0.497046
 H         1.733456         0.092418        -1.223962
 H        -2.920624         0.316842         0.960148
 H        -2.345728        -2.058914         0.702601
 H        -4.111862        -1.734479         0.330415
 H        -3.041382        -2.056183        -1.017063
 H        -3.105212         0.234405        -2.169547
 H        -4.522751         0.796908        -1.273459
 H        -2.610205         3.583822        -2.392263
