19
Iteration:  3614charge 0 multiplicity 1
 C         1.477379        -0.489110         0.993091
 C         0.076463        -0.373323         0.438338
 C        -1.090659        -0.229169         0.225665
 C        -2.336854        -0.055867        -0.498660
 C        -2.869724        -1.531312        -0.904993
 C        -2.223717         1.058238        -1.606555
 O        -3.286762         2.034663        -1.308558
 C        -3.755978         2.710818        -2.437813
 O        -3.555990         2.478378        -3.609426
 H         1.202569        -1.104073         1.885669
 H         2.097319        -1.025869         0.179634
 H         1.710972         0.480238         1.424878
 H        -3.164806         0.278161         0.194641
 H        -3.942440        -1.685472        -0.974997
 H        -2.352828        -1.796227        -1.873081
 H        -2.535638        -2.145940        -0.060960
 H        -1.253454         1.595317        -1.660819
 H        -2.514688         0.703598        -2.520381
 H        -4.323778         3.644545        -2.056968
