19
Iteration:  4774charge 0 multiplicity 1
 C         1.389093        -0.492092         1.042422
 C        -0.014124        -0.287454         0.609907
 C        -1.057307        -0.047674         0.106603
 C        -2.392328         0.195170        -0.532746
 C        -3.047266        -1.176110        -0.559699
 C        -2.091713         0.826627        -1.933136
 O        -3.321622         1.060381        -2.768523
 C        -3.764119         2.277399        -2.600433
 O        -3.345881         3.316529        -2.065431
 H         2.064484         0.439617         1.150734
 H         1.495512        -1.125147         1.955552
 H         1.811211        -1.053960         0.193154
 H        -2.896413         0.988263         0.113355
 H        -4.214096        -1.287755        -0.650104
 H        -2.561111        -1.571296        -1.441235
 H        -2.831516        -1.758801         0.361317
 H        -1.265287         1.679570        -1.949664
 H        -1.610909         0.041334        -2.568920
 H        -4.815719         2.303496        -3.052957
