19
Iteration:   752
 C         1.511122        -0.369678         0.601964
 C         0.070090         0.079635         0.419382
 C        -1.030308         0.115523        -0.100284
 C        -2.503426         0.043635        -0.317974
 C        -3.039939        -1.369369        -0.097938
 C        -2.733220         0.316228        -1.872777
 O        -2.310039         1.799000        -1.992171
 C        -3.275850         2.664047        -2.370282
 O        -4.284145         2.469206        -2.996901
 H         1.761157        -0.146705         1.758014
 H         1.928499        -1.307106         0.164096
 H         2.117368         0.266931         0.076082
 H        -3.013053         0.763278         0.269964
 H        -2.876453        -1.762731         0.929849
 H        -4.148922        -1.308238        -0.233144
 H        -2.853779        -2.105988        -0.898448
 H        -2.004880        -0.239446        -2.452722
 H        -3.734153         0.338226        -2.342663
 H        -2.880245         3.688153        -2.236764
