19
Iteration:  2403
 C         1.231011         0.343282         0.326600
 C        -0.265419         0.230526         0.274924
 C        -1.382807        -0.008177        -0.014681
 C        -2.749645        -0.377454        -0.366252
 C        -2.716876        -1.931140        -0.723022
 C        -3.415724         0.485264        -1.495885
 O        -3.544381         1.918497        -1.291637
 C        -2.806218         2.730925        -2.240823
 O        -2.101142         2.362413        -3.171774
 H         1.540421         1.158801        -0.353718
 H         1.575939         0.417535         1.363543
 H         1.497925        -0.490127        -0.240997
 H        -3.417241        -0.282156         0.521692
 H        -1.855418        -2.514078        -0.336490
 H        -3.671719        -2.256869        -0.300794
 H        -2.625906        -2.194269        -1.787830
 H        -2.889245         0.370860        -2.427728
 H        -4.445549         0.173313        -1.795505
 H        -3.314994         3.682708        -1.979239
