19
Iteration:  1873charge 0 multiplicity 1
 C         1.337307         0.190991         0.543876
 C        -0.047361        -0.021667         0.281813
 C        -1.223242         0.026080         0.084464
 C        -2.545705        -0.205055        -0.327692
 C        -2.958525        -1.707283        -0.692292
 C        -3.021976         0.475787        -1.537753
 O        -2.953534         1.918444        -1.290328
 C        -3.011889         2.731850        -2.341935
 O        -3.249211         2.311195        -3.466889
 H         1.450613         0.425334         1.671661
 H         2.073181        -0.652487         0.245284
 H         1.823223         1.060149         0.204073
 H        -3.185021        -0.020280         0.518905
 H        -2.953837        -2.161148        -1.723741
 H        -2.285940        -2.423846        -0.156012
 H        -3.943309        -1.801075        -0.187407
 H        -2.416262         0.216588        -2.366951
 H        -4.084388         0.300204        -1.767817
 H        -2.797272         3.727848        -2.085832
