19
Iteration:  4475charge 0 multiplicity 1
 C         1.405740        -0.386747         1.159364
 C         0.183160        -0.285362         0.345114
 C        -0.927510        -0.242256        -0.154621
 C        -2.279482        -0.150709        -0.466602
 C        -3.054350        -1.332957        -1.081235
 C        -2.337010         1.253358        -1.268421
 O        -3.687368         1.585128        -1.499443
 C        -3.844320         2.387806        -2.544742
 O        -2.984426         2.742682        -3.307600
 H         1.950844        -1.245421         0.824771
 H         1.987832         0.488019         1.016324
 H         1.309809        -0.529879         2.293757
 H        -2.813162         0.081736         0.508148
 H        -3.674016        -0.958425        -1.899483
 H        -2.535023        -2.137283        -1.502122
 H        -3.834452        -1.813434        -0.523427
 H        -1.954501         1.997630        -0.576365
 H        -1.825480         1.304388        -2.319734
 H        -4.845089         2.875711        -2.421139
