19
Iteration:  1731
 C         1.474233        -0.174422         0.901834
 C         0.102739         0.007294         0.427418
 C        -1.055474        -0.127664         0.030334
 C        -2.477941        -0.140015        -0.467126
 C        -2.916114        -1.698675        -0.414139
 C        -2.752542         0.535293        -1.795333
 O        -2.603278         2.004233        -1.627711
 C        -3.325511         2.849212        -2.479895
 O        -4.041820         2.453924        -3.368093
 H         2.025204        -1.144442         0.643703
 H         1.973271         0.780027         0.547044
 H         1.427867        -0.185003         1.944262
 H        -3.074688         0.306359         0.396141
 H        -4.027678        -1.814750        -0.347306
 H        -2.541056        -2.396298        -1.168625
 H        -2.363970        -1.995417         0.471804
 H        -2.029632         0.144875        -2.478353
 H        -3.761188         0.314244        -2.127731
 H        -3.131196         3.890387        -2.036768
