19
Iteration:  1917charge 0 multiplicity 1
 C         1.197327         0.369889         0.382798
 C        -0.148382         0.145557         0.158326
 C        -1.280726        -0.198298         0.083129
 C        -2.649194        -0.394084        -0.341103
 C        -2.968485        -1.920272        -0.440255
 C        -2.978380         0.478543        -1.573825
 O        -2.944720         1.919877        -1.244009
 C        -3.015944         2.798952        -2.307052
 O        -2.916358         2.456267        -3.452539
 H         1.529429         1.140390         1.186019
 H         1.622155        -0.655517         0.747467
 H         1.719098         0.680720        -0.473451
 H        -3.372542         0.030400         0.326586
 H        -3.937395        -2.140284        -0.952702
 H        -2.237994        -2.382017        -1.173491
 H        -2.994439        -2.300367         0.602707
 H        -2.454474         0.357932        -2.488492
 H        -4.079039         0.289261        -1.708404
 H        -3.099762         3.832601        -2.099620
