19
Iteration:  1351charge 0 multiplicity 1
 C         1.024720         0.575651         0.833145
 C        -0.320422         0.255667         0.316294
 C        -1.337457         0.015922        -0.236303
 C        -2.667902        -0.243876        -0.833474
 C        -3.133194        -1.772184        -0.541296
 C        -2.863748         0.209719        -2.372369
 O        -2.077144         1.478683        -2.629660
 C        -2.778371         2.591247        -2.186113
 O        -3.619456         2.568255        -1.285270
 H         1.823376        -0.090355         1.171866
 H         1.603495         1.294512         0.182127
 H         0.995415         1.148310         1.751484
 H        -3.286933         0.375298        -0.223973
 H        -4.002588        -1.724097         0.103756
 H        -3.314211        -2.154527        -1.487230
 H        -2.379851        -2.262972         0.034471
 H        -2.435984        -0.537286        -3.067356
 H        -3.943865         0.385373        -2.606300
 H        -2.203066         3.451682        -2.595950
