19
Iteration:  3534charge 0 multiplicity 1
 C         1.290629        -0.253199         1.284929
 C         0.195873        -0.303071         0.374557
 C        -0.935851        -0.245228        -0.111194
 C        -2.252088        -0.168838        -0.596212
 C        -3.139328        -1.565680        -0.794410
 C        -2.386554         0.697217        -1.910141
 O        -2.964227         1.976072        -1.405622
 C        -3.550591         2.837159        -2.251711
 O        -3.737956         2.590243        -3.404802
 H         1.829578        -1.264149         1.552423
 H         2.050772         0.422236         0.969416
 H         0.973477         0.245953         2.215533
 H        -2.825611         0.395649         0.177077
 H        -4.038920        -1.330282        -1.360180
 H        -2.660331        -2.291905        -1.402650
 H        -3.375505        -2.118297         0.101645
 H        -1.521108         1.063233        -2.449960
 H        -3.062743         0.341425        -2.691141
 H        -4.024450         3.730038        -1.740704
