19
Iteration:  3363
 C         1.195898         0.132343         1.043580
 C        -0.176657        -0.049274         0.463815
 C        -1.286940        -0.083386        -0.014052
 C        -2.626614        -0.278705        -0.566588
 C        -2.721349        -1.758309        -0.976489
 C        -2.978380         0.422562        -1.779324
 O        -2.366460         1.733586        -1.676439
 C        -2.887103         2.787043        -2.249909
 O        -3.820066         2.766355        -3.017624
 H         1.618667         0.884372         0.466733
 H         1.024605         0.492615         2.129286
 H         1.782153        -0.759017         1.158905
 H        -3.305007        -0.031072         0.223199
 H        -3.653154        -2.068133        -1.523413
 H        -1.872631        -2.247775        -1.491738
 H        -2.969670        -2.352361        -0.075399
 H        -2.592758        -0.092484        -2.735515
 H        -4.047674         0.656741        -1.871993
 H        -2.444780         3.692253        -1.864515
