19
Iteration:  2651
 C         1.025576         0.481434         0.202153
 C        -0.350087         0.104267         0.296467
 C        -1.538665        -0.197478         0.320722
 C        -2.750935        -0.509675        -0.383990
 C        -2.961163        -2.052972        -0.801066
 C        -2.700250         0.386124        -1.703885
 O        -2.766468         1.810470        -1.225411
 C        -2.794125         2.825748        -2.079867
 O        -2.981482         2.725923        -3.265287
 H         1.767014         0.330142         1.020031
 H         1.258105         0.010036        -0.724931
 H         1.036525         1.662729         0.127004
 H        -3.576758        -0.095970         0.258833
 H        -3.882707        -1.893863        -1.421609
 H        -2.023578        -2.278516        -1.404136
 H        -3.101304        -2.710089         0.137549
 H        -1.695185         0.212113        -2.056359
 H        -3.507256         0.224499        -2.491968
 H        -2.684113         3.742013        -1.416876
