19
Iteration:  3089
 C         1.278547        -0.185684         0.996620
 C        -0.019404         0.023583         0.466767
 C        -1.123349         0.017377        -0.096137
 C        -2.479131        -0.303824        -0.599164
 C        -2.752397        -1.792475        -0.758625
 C        -2.878662         0.561804        -1.784681
 O        -2.935749         1.857765        -1.322852
 C        -3.084843         2.782023        -2.295000
 O        -3.615318         2.792746        -3.382390
 H         1.218630        -1.160683         1.517851
 H         2.142029        -0.409456         0.155444
 H         1.375955         0.634908         1.678287
 H        -3.159951        -0.126302         0.289848
 H        -3.678976        -1.957765        -1.287473
 H        -2.079025        -2.366818        -1.329656
 H        -2.779770        -2.393642         0.138058
 H        -2.069768         0.352023        -2.579855
 H        -3.782190         0.249534        -2.288382
 H        -2.888153         3.791077        -1.805340
