19
Iteration:  4754charge 0 multiplicity 1
 C         1.449998        -0.506395         0.990243
 C         0.064821        -0.443823         0.669917
 C        -1.052586        -0.148926         0.170037
 C        -2.308038         0.194633        -0.462061
 C        -3.088489        -1.133573        -0.657637
 C        -2.024216         0.826737        -1.884128
 O        -3.255400         1.113210        -2.635194
 C        -3.930607         2.309309        -2.649172
 O        -3.453464         3.364134        -2.263068
 H         1.687123         0.489981         1.392956
 H         1.584230        -1.220846         1.849612
 H         2.185276        -0.785875         0.310841
 H        -2.888932         1.015601         0.106560
 H        -4.144602        -0.705609        -0.877346
 H        -2.613718        -1.737811        -1.405766
 H        -3.229878        -1.540906         0.364101
 H        -1.385850         1.654666        -1.664351
 H        -1.428403         0.074215        -2.392622
 H        -4.988870         2.175913        -3.079583
