19
Iteration:  4395
 C         1.306899        -0.189480         0.953065
 C         0.005426        -0.549859         0.657271
 C        -1.080436        -0.439944         0.138860
 C        -2.285629        -0.173651        -0.545582
 C        -2.982853        -1.360589        -1.279716
 C        -2.143073         1.170340        -1.294585
 O        -3.361629         1.913849        -1.382673
 C        -3.818441         2.497139        -2.438503
 O        -3.272199         2.579857        -3.494604
 H         1.987891         0.070573         0.128894
 H         1.293137         0.784368         1.588472
 H         1.714897        -0.892965         1.684039
 H        -2.956917         0.060215         0.355614
 H        -4.080376        -1.341965        -1.412026
 H        -2.637967        -1.500544        -2.355830
 H        -2.529258        -2.232649        -0.743816
 H        -1.414797         1.859710        -0.726887
 H        -1.607119         1.224567        -2.269664
 H        -4.885465         2.844284        -2.139709
