19
Iteration:  4356
 C         1.434780        -0.370148         1.035991
 C         0.031541        -0.324428         0.599158
 C        -1.154281        -0.384803         0.292934
 C        -2.439287        -0.203714        -0.433958
 C        -2.769034        -1.354317        -1.408441
 C        -2.257694         1.160962        -1.285921
 O        -3.376773         2.036467        -1.346487
 C        -3.778210         2.647954        -2.472817
 O        -3.360857         2.406084        -3.562391
 H         2.101618         0.021309         0.236674
 H         1.462514        -0.020607         2.014212
 H         1.882387        -1.446700         0.887323
 H        -3.215604        -0.032945         0.276478
 H        -3.811359        -1.868825        -1.329147
 H        -2.555891        -1.014053        -2.456841
 H        -2.090049        -2.206350        -1.203754
 H        -1.457567         1.677835        -0.869833
 H        -1.952925         0.720037        -2.273726
 H        -4.616943         3.265551        -2.292885
