19
Iteration:  2742
 C         1.220003         0.433554         0.809387
 C        -0.165008         0.074484         0.304245
 C        -1.201144        -0.278437        -0.148840
 C        -2.652021        -0.442896        -0.456285
 C        -2.981135        -1.854182        -1.007879
 C        -3.246888         0.534166        -1.424634
 O        -2.663660         1.841552        -1.318139
 C        -2.649918         2.714175        -2.282575
 O        -3.329297         2.632276        -3.269025
 H         1.042215         1.122579         1.707867
 H         1.566734        -0.559042         1.161111
 H         2.017799         0.891594         0.090699
 H        -3.266923        -0.460444         0.440918
 H        -3.980922        -1.985168        -1.462943
 H        -2.311871        -2.275533        -1.734172
 H        -2.933045        -2.641151        -0.302328
 H        -2.934588         0.241389        -2.466465
 H        -4.292367         0.525862        -1.245223
 H        -2.116659         3.627186        -1.950115
