19
Iteration:  2123
 C         1.070077         0.856949        -0.033605
 C        -0.301450         0.407278        -0.163706
 C        -1.491474         0.242998        -0.256273
 C        -2.875736        -0.351037        -0.448159
 C        -2.822982        -1.825842        -0.796250
 C        -3.672235         0.452461        -1.398073
 O        -3.544869         1.842512        -1.160686
 C        -2.539710         2.386756        -2.001243
 O        -1.667037         1.814283        -2.640539
 H         1.818838         0.152947        -0.486284
 H         1.176063         1.741666        -0.659807
 H         1.406810         0.759660         1.062670
 H        -3.469987        -0.280396         0.521862
 H        -2.418409        -2.068673        -1.806136
 H        -2.166747        -2.313877        -0.098188
 H        -3.805602        -2.259251        -0.817298
 H        -3.545491         0.281688        -2.466057
 H        -4.750130         0.247661        -1.165667
 H        -2.444430         3.413497        -1.707237
