19
Iteration:  2777charge 0 multiplicity 1
 C         1.206081         0.314858         1.060668
 C         0.033421        -0.063609         0.204607
 C        -1.074359        -0.281997        -0.300152
 C        -2.575022        -0.434893        -0.494219
 C        -2.993809        -1.877192        -1.024681
 C        -3.211881         0.634219        -1.371023
 O        -2.726057         1.994067        -1.221793
 C        -2.763706         2.707195        -2.382147
 O        -3.470389         2.576198        -3.367078
 H         0.872338         1.290142         1.554487
 H         1.078148        -0.469216         1.933630
 H         2.249358         0.412941         0.660317
 H        -2.921081        -0.282557         0.539655
 H        -4.023054        -1.786949        -1.243879
 H        -2.417582        -2.039058        -1.906428
 H        -2.859548        -2.482546        -0.129017
 H        -3.128491         0.332270        -2.459179
 H        -4.313051         0.613797        -1.313693
 H        -2.053711         3.539757        -2.173438
