19
Iteration:  4450charge 0 multiplicity 1
 C         1.489647        -0.267656         1.216915
 C         0.215752        -0.247244         0.310579
 C        -0.945709        -0.424657        -0.019433
 C        -2.346600        -0.190252        -0.446725
 C        -3.175607        -1.162816        -1.266824
 C        -2.204956         1.120479        -1.323451
 O        -3.653812         1.655581        -1.426045
 C        -3.845088         2.430959        -2.465636
 O        -3.049715         2.654116        -3.349696
 H         2.190875        -0.934645         0.787172
 H         1.880540         0.765197         1.424467
 H         1.315004        -0.742374         2.203931
 H        -2.897139         0.053693         0.506300
 H        -3.828695        -0.831409        -2.086016
 H        -2.588294        -1.952309        -1.714463
 H        -3.890864        -1.786754        -0.708223
 H        -1.551581         1.921662        -0.875789
 H        -1.919116         0.857497        -2.379777
 H        -4.931309         2.813160        -2.451165
