19
Iteration:  3214
 C         1.140663         0.459400         0.788405
 C        -0.244128         0.089891         0.443952
 C        -1.280503        -0.400997         0.059292
 C        -2.618237        -0.553504        -0.507296
 C        -3.181236        -1.850009        -1.069907
 C        -2.683112         0.441606        -1.698826
 O        -2.296036         1.953559        -1.435711
 C        -2.851692         2.840244        -2.200606
 O        -3.677642         2.573671        -3.041899
 H         1.199915         1.267536         1.647560
 H         1.773627        -0.344007         0.883396
 H         1.250212         1.091165        -0.197282
 H        -3.190157        -0.219108         0.383633
 H        -4.009638        -1.758873        -1.772254
 H        -2.482687        -2.450741        -1.713210
 H        -3.554493        -2.572877        -0.368730
 H        -1.975236         0.216797        -2.439005
 H        -3.754309         0.464403        -1.943423
 H        -2.270794         3.783175        -2.237647
