19
Iteration:   633charge 0 multiplicity 1
 C         1.565431        -0.129484         0.566472
 C         0.106804        -0.114090         0.330796
 C        -0.963365        -0.108677        -0.247157
 C        -2.414987        -0.119358        -0.287828
 C        -3.202054        -1.454172        -0.081874
 C        -3.022110         0.570749        -1.523768
 O        -2.438727         2.017165        -1.674383
 C        -3.111518         2.675099        -2.641230
 O        -4.099607         2.317023        -3.252734
 H         1.889668        -1.151738         0.162801
 H         1.968970         0.690121        -0.038963
 H         2.100370         0.110779         1.478846
 H        -2.605671         0.584803         0.592970
 H        -3.270720        -1.769738         0.971779
 H        -4.192911        -1.535928        -0.476952
 H        -2.606469        -2.266150        -0.529158
 H        -2.784192         0.069901        -2.429435
 H        -4.084536         0.641018        -1.350008
 H        -2.525667         3.671997        -2.583199
