19
Iteration:   883
 C         1.447339        -0.003984         0.752335
 C         0.081619        -0.196030         0.277694
 C        -1.090808         0.067632        -0.031262
 C        -2.490101         0.061678        -0.474731
 C        -3.322965        -1.309730        -0.333677
 C        -2.464619         0.317751        -1.923517
 O        -2.191577         1.681741        -2.337108
 C        -3.201925         2.607486        -2.246502
 O        -4.376551         2.473362        -2.440263
 H         2.069707         0.369464        -0.060383
 H         1.616221         0.634416         1.631286
 H         1.919805        -0.917415         0.869536
 H        -3.134007         0.854378        -0.022830
 H        -2.977444        -1.993188         0.476981
 H        -4.369646        -1.053180        -0.074177
 H        -3.228244        -1.997890        -1.239254
 H        -1.622822        -0.256785        -2.370029
 H        -3.401367         0.048235        -2.442556
 H        -2.514450         3.521741        -2.214010
