19
Iteration:  3083
 C         1.267895        -0.221675         0.996162
 C         0.000071        -0.038928         0.424473
 C        -1.077526         0.018258        -0.067578
 C        -2.479384        -0.273103        -0.595142
 C        -2.774138        -1.787041        -0.795000
 C        -2.860895         0.525272        -1.752635
 O        -2.970058         1.860526        -1.323197
 C        -3.129174         2.870838        -2.284588
 O        -3.603858         2.744230        -3.406169
 H         1.442683        -1.086220         1.684664
 H         2.151397        -0.108173         0.468438
 H         1.432255         0.662882         1.711883
 H        -3.093551        -0.000860         0.265317
 H        -3.786575        -1.906652        -1.257399
 H        -1.967113        -2.276908        -1.443210
 H        -2.803612        -2.285816         0.213844
 H        -2.175086         0.420383        -2.573476
 H        -3.796069         0.213589        -2.284555
 H        -2.815399         3.816361        -1.865080
