19
Iteration:  3486
 C         1.270035        -0.228220         1.245885
 C        -0.003698        -0.209180         0.465843
 C        -1.106708        -0.256179        -0.036852
 C        -2.424988        -0.279205        -0.652080
 C        -2.835514        -1.710531        -0.719690
 C        -2.588984         0.691050        -1.977279
 O        -2.655223         2.067418        -1.494560
 C        -3.408010         2.905550        -2.239626
 O        -3.854191         2.638790        -3.362348
 H         1.843070        -0.955499         0.747970
 H         1.778750         0.762517         1.225858
 H         1.126822        -0.488442         2.316609
 H        -3.142902         0.047597         0.076298
 H        -3.804826        -1.802251        -1.241901
 H        -2.164213        -2.474997        -1.178637
 H        -2.916598        -2.183041         0.273908
 H        -1.691711         0.743917        -2.612914
 H        -3.425259         0.436327        -2.757981
 H        -3.505241         3.900947        -1.816928
