19
Iteration:  3238charge 0 multiplicity 1
 C         1.092632         0.598615         0.861595
 C        -0.168084         0.042687         0.327378
 C        -1.239492        -0.494723        -0.048093
 C        -2.657152        -0.427122        -0.536663
 C        -3.217052        -1.739354        -1.023111
 C        -2.694750         0.556419        -1.761637
 O        -2.197365         1.739651        -1.437339
 C        -2.939285         2.701945        -2.071046
 O        -3.645050         2.573476        -3.061711
 H         0.995265         1.473222         1.623861
 H         1.553835        -0.239386         1.349059
 H         1.707875         0.966651        -0.019788
 H        -3.231557         0.049763         0.257909
 H        -4.143181        -1.626857        -1.653177
 H        -2.596605        -2.396857        -1.686384
 H        -3.595993        -2.398391        -0.224252
 H        -2.094692         0.252223        -2.583247
 H        -3.779900         0.621809        -2.000717
 H        -2.661739         3.649550        -1.686389
