19
Iteration:  4973charge 0 multiplicity 1
 C         1.245166         0.175770         1.016742
 C        -0.085293        -0.120106         0.460969
 C        -1.087775        -0.448646        -0.181278
 C        -2.374465        -0.052838        -0.722112
 C        -3.358548        -1.219049        -0.760969
 C        -2.129829         0.544648        -2.071960
 O        -3.306624         1.134212        -2.638212
 C        -3.628158         2.396237        -2.274441
 O        -2.916802         3.124693        -1.679079
 H         2.025963        -0.505423         0.765962
 H         1.549736         1.284938         0.922290
 H         1.014830         0.070937         2.066950
 H        -2.797550         0.762965        -0.213931
 H        -4.381387        -0.931305        -0.652456
 H        -3.192393        -1.768517        -1.654265
 H        -2.972996        -1.849444         0.024009
 H        -1.448871         1.306774        -1.913172
 H        -1.838436        -0.238553        -2.761597
 H        -4.575111         2.632582        -2.737986
