19
Iteration:   716charge 0 multiplicity 1
 C         1.542761        -0.305512         0.618709
 C         0.111730        -0.005588         0.347031
 C        -1.072586         0.027661        -0.016396
 C        -2.481309        -0.017504        -0.388115
 C        -3.009389        -1.478206        -0.057384
 C        -2.854257         0.496740        -1.829954
 O        -2.362535         1.911490        -1.818357
 C        -3.175814         2.708277        -2.608459
 O        -4.276767         2.398806        -3.027877
 H         1.717616        -0.838657         1.535757
 H         1.995646        -0.958625        -0.150777
 H         1.991162         0.689611         0.745711
 H        -3.026002         0.611782         0.330081
 H        -2.422351        -1.894900         0.780647
 H        -4.064615        -1.257998         0.330845
 H        -2.998742        -2.203009        -0.891166
 H        -2.312996        -0.086376        -2.643395
 H        -3.969887         0.414433        -1.997003
 H        -2.644856         3.687308        -2.930330
