19
Iteration:  4895
 C         1.186604         0.032615         1.223880
 C        -0.069814        -0.113784         0.479662
 C        -0.998808        -0.240845        -0.246330
 C        -2.294635         0.049173        -0.895871
 C        -3.250761        -1.054371        -0.562516
 C        -2.147593         0.491396        -2.334192
 O        -3.437183         1.127391        -2.793576
 C        -3.668247         2.369871        -2.232500
 O        -2.926027         2.928545        -1.494928
 H         1.843175         0.181537         0.307574
 H         1.233423         0.946767         1.891364
 H         1.524456        -0.827102         1.779121
 H        -2.748362         0.923077        -0.427983
 H        -4.313916        -0.965922        -0.980624
 H        -2.849413        -2.000434        -0.781539
 H        -3.468244        -0.964047         0.498185
 H        -1.301135         1.157019        -2.691517
 H        -1.988517        -0.416624        -2.963784
 H        -4.421877         2.877679        -2.827055
