19
Iteration:  3121charge 0 multiplicity 1
 C         1.192754        -0.114771         0.850603
 C        -0.167390         0.170810         0.467199
 C        -1.294765        -0.059829         0.006002
 C        -2.564965        -0.379049        -0.556471
 C        -2.654005        -1.914565        -0.723448
 C        -2.925284         0.453765        -1.882600
 O        -2.643726         1.872520        -1.473957
 C        -3.047038         2.882181        -2.181521
 O        -3.582880         2.811163        -3.271955
 H         1.071387        -0.714601         1.711067
 H         1.710782        -0.596678        -0.089281
 H         1.573954         0.824906         1.157891
 H        -3.394413        -0.101852         0.121379
 H        -3.579615        -2.333289        -1.133558
 H        -1.866665        -2.245521        -1.356386
 H        -2.519695        -2.310493         0.281848
 H        -2.075790         0.150791        -2.556201
 H        -3.979432         0.344561        -2.084497
 H        -3.008258         3.834223        -1.513547
