19
Iteration:   942
 C         1.317403         0.010328         0.849313
 C        -0.013270         0.114229         0.307910
 C        -1.094269         0.014169        -0.276764
 C        -2.492093        -0.057230        -0.616314
 C        -3.207193        -1.509226        -0.173716
 C        -2.712090         0.316072        -2.145247
 O        -2.125567         1.723372        -2.396869
 C        -3.069106         2.632348        -2.395563
 O        -4.200572         2.465894        -2.053650
 H         2.004045        -0.695469         0.265705
 H         1.825176         0.930960         1.033263
 H         1.079913        -0.412048         1.793477
 H        -2.933020         0.835041        -0.173338
 H        -3.370313        -1.451917         0.915308
 H        -4.156679        -1.558901        -0.751777
 H        -2.554844        -2.313748        -0.554124
 H        -2.184716        -0.412762        -2.758463
 H        -3.785082         0.344401        -2.300385
 H        -2.677254         3.689255        -2.494196
