19
Iteration:  1142charge 0 multiplicity 1
 C         1.015637         0.749115         0.607593
 C        -0.402702         0.305584         0.258337
 C        -1.374559         0.001592        -0.358558
 C        -2.690921        -0.297384        -0.814557
 C        -3.290981        -1.675696        -0.508984
 C        -2.764730         0.154016        -2.302058
 O        -2.009370         1.355256        -2.515687
 C        -2.643556         2.496960        -2.043543
 O        -3.588610         2.592414        -1.274321
 H         0.946423         1.830590         0.931021
 H         1.605944         0.117669         1.348913
 H         1.551979         0.840412        -0.295606
 H        -3.325825         0.355135        -0.177700
 H        -2.872708        -1.968193         0.476733
 H        -4.363137        -1.553803        -0.197878
 H        -3.030951        -2.531858        -1.222322
 H        -2.328598        -0.667373        -2.943415
 H        -3.851230         0.337360        -2.581202
 H        -2.142625         3.485773        -2.370624
