19
Iteration:   971charge 0 multiplicity 1
 C         1.339145         0.015622         0.914135
 C         0.043184         0.157217         0.241305
 C        -1.127544         0.056582        -0.147055
 C        -2.509217         0.021246        -0.574993
 C        -3.112707        -1.409918        -0.439320
 C        -2.735549         0.207434        -2.090855
 O        -2.257481         1.503549        -2.519465
 C        -3.052543         2.526729        -2.365724
 O        -4.177297         2.666986        -1.901741
 H         1.860628        -0.939816         0.732273
 H         2.044655         0.860841         0.724772
 H         0.967630         0.129685         2.012700
 H        -2.974828         0.841455         0.024004
 H        -3.812890        -1.582316         0.385563
 H        -3.662694        -1.526900        -1.381523
 H        -2.327068        -2.197196        -0.294325
 H        -2.181621        -0.543590        -2.691643
 H        -3.773261         0.089406        -2.347011
 H        -2.543837         3.474467        -2.510131
