19
Iteration:  1844
 C         1.504294         0.094745         0.680956
 C         0.013178         0.037034         0.426102
 C        -1.129947        -0.125250        -0.025048
 C        -2.635161        -0.179882        -0.293885
 C        -2.884036        -1.785642        -0.698101
 C        -3.107207         0.566257        -1.540513
 O        -2.911384         2.027225        -1.297858
 C        -3.084369         2.731540        -2.457470
 O        -3.442123         2.339333        -3.529010
 H         1.750244        -0.342784         1.668797
 H         2.079675        -0.629275         0.137707
 H         1.987577         1.114607         0.702331
 H        -3.276153         0.060513         0.610287
 H        -1.970338        -2.208865        -1.037970
 H        -2.978521        -2.345963         0.274973
 H        -3.794359        -1.925009        -1.269657
 H        -2.586235         0.251811        -2.467743
 H        -4.174834         0.512944        -1.736728
 H        -2.728255         3.820034        -2.396120
