19
Iteration:  2359charge 0 multiplicity 1
 C         1.081356         0.678009         0.279360
 C        -0.263505         0.218586        -0.040558
 C        -1.398769        -0.084225        -0.100583
 C        -2.804183        -0.418877        -0.382021
 C        -3.066683        -1.820475        -0.594423
 C        -3.251716         0.351617        -1.587149
 O        -3.319167         1.716216        -1.255975
 C        -2.723547         2.593159        -2.084991
 O        -2.061562         2.447488        -3.074981
 H         1.330820         1.745029         0.366252
 H         1.224037         0.128519         1.244522
 H         1.793077         0.479979        -0.458365
 H        -3.350987        -0.003159         0.492751
 H        -2.297683        -2.453148        -0.131416
 H        -4.069305        -2.067406        -0.198128
 H        -2.974437        -2.126921        -1.682484
 H        -2.615820         0.168423        -2.427607
 H        -4.269813        -0.046714        -1.913408
 H        -2.749406         3.570477        -1.499712
