19
Iteration:  2416charge 0 multiplicity 1
 C         1.180072         0.209844         0.328038
 C        -0.248782         0.247786         0.314540
 C        -1.345287        -0.008135        -0.017999
 C        -2.719997        -0.311724        -0.369161
 C        -2.668879        -1.820470        -0.763340
 C        -3.398216         0.455771        -1.539940
 O        -3.542489         1.962541        -1.339763
 C        -2.891002         2.670788        -2.217155
 O        -2.187171         2.322961        -3.125777
 H         1.490081         1.115627        -0.299054
 H         1.681199         0.538703         1.218761
 H         1.695372        -0.747936         0.187988
 H        -3.297702        -0.141040         0.550744
 H        -1.844969        -2.235930        -0.067199
 H        -3.560653        -2.496982        -0.626698
 H        -2.437978        -1.820848        -1.871715
 H        -2.799626         0.292855        -2.475311
 H        -4.414528         0.062207        -1.481900
 H        -2.943355         3.776096        -2.130499
