19
Iteration:  1565charge 0 multiplicity 1
 C         1.329386        -0.008272         0.894341
 C        -0.109687        -0.048803         0.510533
 C        -1.162578         0.014154        -0.093336
 C        -2.456318        -0.022270        -0.628781
 C        -3.101195        -1.571961        -0.440869
 C        -2.453519         0.457357        -2.094033
 O        -2.156035         1.888972        -2.189381
 C        -3.176147         2.663232        -2.315699
 O        -4.338055         2.311827        -2.436415
 H         1.670897         1.069887         0.928855
 H         1.314997        -0.386413         1.920258
 H         1.930568        -0.641023         0.259720
 H        -3.153273         0.735460        -0.110782
 H        -3.750154        -1.424079         0.414155
 H        -3.474996        -1.908292        -1.420981
 H        -2.314113        -2.283471        -0.064184
 H        -1.627921        -0.066567        -2.617759
 H        -3.399076         0.271840        -2.581633
 H        -2.958668         3.848336        -2.336642
