19
Iteration:  2912charge 0 multiplicity 1
 C         1.343224        -0.226347         0.757308
 C        -0.051402        -0.270157         0.627110
 C        -1.257911        -0.106030         0.256095
 C        -2.571738        -0.224011        -0.512555
 C        -2.711956        -1.751543        -0.659895
 C        -2.578382         0.601409        -1.888478
 O        -2.867376         1.957731        -1.394438
 C        -3.481323         2.809261        -2.304662
 O        -3.513810         2.806989        -3.526704
 H         1.960480        -0.036547        -0.097594
 H         1.515062         0.524182         1.653221
 H         1.857809        -1.016572         1.255056
 H        -3.390178         0.327346        -0.044252
 H        -3.361684        -2.090622        -1.440350
 H        -1.821035        -2.304152        -0.851176
 H        -3.140120        -2.154939         0.214595
 H        -1.632257         0.667623        -2.404925
 H        -3.410489         0.452810        -2.637790
 H        -3.993402         3.650863        -1.843715
