19
Iteration:  4204
 C         1.340241        -1.133003         1.219349
 C         0.158432        -0.548522         0.660826
 C        -0.716559         0.039527         0.029374
 C        -2.038297         0.345102        -0.471389
 C        -2.635209        -0.835633        -1.305994
 C        -2.225872         1.675300        -1.202716
 O        -3.675643         1.907521        -1.333729
 C        -4.128782         2.009720        -2.649499
 O        -3.502318         2.264873        -3.637011
 H         1.311149        -0.912122         2.345578
 H         1.185425        -2.213097         1.215492
 H         2.209430        -0.958856         0.667394
 H        -2.722475         0.547682         0.400527
 H        -2.951617        -0.695333        -2.406436
 H        -2.158234        -1.778552        -1.383262
 H        -3.519824        -1.226920        -0.801900
 H        -1.744674         2.426893        -0.668427
 H        -1.779195         1.604620        -2.233733
 H        -5.270355         2.049367        -2.604768
