19
Iteration:   242charge 0 multiplicity 1
 C         1.118188         0.489981        -0.830208
 C        -0.190785         0.316497        -0.383435
 C        -1.370025         0.143545        -0.057106
 C        -2.837325        -0.123918         0.041482
 C        -3.293080        -1.561674         0.273634
 C        -3.578829         0.404240        -1.255001
 O        -3.317221         1.877281        -1.270172
 C        -2.423497         2.387834        -2.168621
 O        -1.848323         1.841717        -3.103935
 H         1.533619        -0.504099        -1.379583
 H         1.126144         0.944272        -1.771226
 H         1.765445         1.026122        -0.239905
 H        -3.295577         0.646303         0.829341
 H        -2.653623        -2.212039         0.845990
 H        -4.280319        -1.690504         0.661329
 H        -3.353978        -2.020629        -0.709650
 H        -3.332075        -0.039530        -2.187004
 H        -4.668743         0.377356        -1.157377
 H        -2.468872         3.507487        -1.976886
