19
Iteration:  4515
 C         1.554974        -0.579938         1.041933
 C         0.217867        -0.470613         0.490663
 C        -0.956747        -0.181799         0.138196
 C        -2.372863        -0.068569        -0.378602
 C        -2.798136        -1.364174        -0.984452
 C        -2.473103         1.230295        -1.286352
 O        -3.873417         1.588075        -1.649160
 C        -3.894212         2.411169        -2.758236
 O        -3.011724         3.007354        -3.307451
 H         1.784023        -1.668342         1.020709
 H         2.340686        -0.008924         0.408231
 H         1.705643        -0.233742         2.078876
 H        -2.922436         0.072403         0.553779
 H        -3.647888        -1.018943        -1.649800
 H        -1.985326        -1.710322        -1.635586
 H        -2.976815        -2.080878        -0.135227
 H        -1.975412         2.141688        -0.916678
 H        -1.763466         1.108375        -2.119629
 H        -4.973294         2.392464        -3.098299
