19
Iteration:  4728charge 0 multiplicity 1
 C         1.501276        -0.572937         1.081873
 C         0.178384        -0.445872         0.563660
 C        -0.949533        -0.197894         0.185022
 C        -2.246742         0.153950        -0.463073
 C        -3.337104        -1.109278        -0.759523
 C        -1.997749         0.995891        -1.821138
 O        -3.260334         1.039320        -2.375644
 C        -3.877996         2.271499        -2.696865
 O        -3.571318         3.406750        -2.429464
 H         1.773294         0.365177         1.696292
 H         1.711760        -1.448124         1.696843
 H         2.288267        -0.551262         0.237318
 H        -2.742400         0.912311         0.155639
 H        -4.112203        -0.728189        -1.361752
 H        -2.755612        -1.976216        -1.198364
 H        -3.861931        -1.266647         0.186155
 H        -1.626966         2.081312        -1.476399
 H        -1.134277         0.553055        -2.394950
 H        -4.716941         2.005353        -3.375494
