19
Iteration:  4263charge 0 multiplicity 1
 C         1.435814        -0.873795         1.282610
 C         0.250776        -0.584672         0.567430
 C        -0.847286        -0.213778         0.145917
 C        -2.194091         0.144388        -0.439608
 C        -2.799522        -0.938582        -1.371545
 C        -2.148437         1.509349        -1.180952
 O        -3.536744         1.981169        -1.407735
 C        -4.161343         2.210236        -2.656908
 O        -3.517181         2.330480        -3.642594
 H         1.942888        -0.004283         1.711842
 H         1.098045        -1.709430         2.012224
 H         2.250859        -1.269665         0.613275
 H        -2.910117         0.301361         0.419128
 H        -3.464239        -0.469894        -2.052371
 H        -1.786014        -1.162471        -1.814805
 H        -3.310765        -1.698720        -0.790495
 H        -1.672394         2.311748        -0.431248
 H        -1.690922         1.569475        -2.153735
 H        -5.268361         2.332149        -2.518327
