19
Iteration:  4428
 C         1.424059        -0.171765         1.077609
 C         0.132113        -0.405960         0.539012
 C        -0.972890        -0.542191         0.032859
 C        -2.278037        -0.152630        -0.474658
 C        -3.102441        -1.155662        -1.302730
 C        -2.227005         1.097211        -1.352010
 O        -3.525697         1.760103        -1.333221
 C        -3.841615         2.428204        -2.466301
 O        -3.133377         2.649396        -3.434585
 H         2.245837        -0.544030         0.492634
 H         1.397955         0.908081         1.403339
 H         1.481885        -0.748424         2.025619
 H        -2.868333         0.114487         0.455321
 H        -3.980391        -0.770627        -1.891096
 H        -2.494215        -1.759379        -1.993495
 H        -3.653193        -1.951949        -0.746930
 H        -1.447338         1.791279        -0.917582
 H        -2.024934         0.729891        -2.388687
 H        -4.948904         2.735905        -2.434872
