19
Iteration:  3816charge 0 multiplicity 1
 C         1.505927        -1.040252         0.761473
 C         0.252582        -0.338932         0.308431
 C        -0.885933         0.023597         0.033763
 C        -2.333866         0.267464        -0.193123
 C        -2.879006        -0.956603        -1.055499
 C        -2.462417         1.599539        -0.961990
 O        -3.854947         1.782161        -1.459974
 C        -3.922283         2.197806        -2.743729
 O        -2.942599         2.175796        -3.448150
 H         2.297200        -0.292471         0.919807
 H         1.280262        -1.305768         1.812127
 H         1.866181        -1.927711         0.097445
 H        -2.872439         0.344061         0.791422
 H        -3.880486        -1.171117        -0.604655
 H        -3.169572        -0.718007        -2.067881
 H        -2.119413        -1.715330        -0.892785
 H        -2.508462         2.378856        -0.241383
 H        -1.680075         1.814513        -1.684724
 H        -4.984843         2.455776        -3.036302
