19
Iteration:  2995
 C         1.486827        -0.187485         1.088448
 C         0.091776        -0.224914         0.464048
 C        -1.032430        -0.245934         0.033014
 C        -2.416529        -0.208647        -0.525089
 C        -2.972324        -1.532898        -1.000290
 C        -2.660448         0.768970        -1.676910
 O        -3.184137         2.031488        -1.218096
 C        -3.383747         2.829210        -2.365446
 O        -3.462198         2.417068        -3.506322
 H         1.854394        -1.070120         0.519585
 H         2.017904         0.611477         0.759250
 H         1.321434        -0.427432         2.158644
 H        -3.129642         0.342530         0.083501
 H        -4.082533        -1.500942        -0.830429
 H        -2.724340        -1.796811        -2.078578
 H        -2.555593        -2.420656        -0.380742
 H        -1.786829         0.898175        -2.336088
 H        -3.498518         0.249964        -2.227930
 H        -3.659181         3.794443        -1.922626
