19
Iteration:   852
 C         1.517797        -0.099480         0.691585
 C         0.103013         0.053693         0.374508
 C        -1.095561        -0.198416         0.111071
 C        -2.441932        -0.027042        -0.477680
 C        -3.298948        -1.260510        -0.310386
 C        -2.619417         0.434291        -1.956543
 O        -2.156608         1.807229        -2.190382
 C        -3.181126         2.639146        -2.405356
 O        -4.380313         2.334664        -2.503236
 H         2.052613         0.786174         0.104322
 H         1.964613        -0.155693         1.702218
 H         1.780368        -0.972400         0.184768
 H        -3.026757         0.706325         0.042341
 H        -3.374499        -1.766167         0.693232
 H        -4.342837        -0.968904        -0.613280
 H        -3.089958        -2.107844        -1.063616
 H        -2.016484        -0.091036        -2.687608
 H        -3.636624         0.399474        -2.300710
 H        -2.749354         3.626707        -2.918281
