19
Iteration:  2226charge 0 multiplicity 1
 C         0.877229         1.031414        -0.169326
 C        -0.469484         0.374577        -0.029642
 C        -1.529883        -0.150611        -0.059988
 C        -2.929894        -0.471193        -0.354763
 C        -3.047985        -1.946027        -0.673792
 C        -3.341078         0.376060        -1.549304
 O        -3.274563         1.807162        -1.162355
 C        -2.413924         2.532631        -1.932388
 O        -1.748109         2.130312        -2.846689
 H         1.457073         0.718755         0.793951
 H         1.265697         0.650658        -1.214098
 H         0.755689         2.098927        -0.378739
 H        -3.492015        -0.230785         0.566877
 H        -4.074666        -2.274784        -0.423405
 H        -2.849763        -2.048904        -1.786676
 H        -2.241721        -2.620033        -0.227223
 H        -2.635946         0.177239        -2.408553
 H        -4.414132         0.307956        -1.830258
 H        -2.333537         3.477611        -1.324981
