19
Iteration:  4972
 C         1.244785         0.183738         1.025560
 C        -0.086386        -0.124132         0.445593
 C        -1.083866        -0.445713        -0.176245
 C        -2.368034        -0.052852        -0.722346
 C        -3.365796        -1.220694        -0.764290
 C        -2.121704         0.546275        -2.069518
 O        -3.316627         1.132401        -2.640705
 C        -3.626567         2.384404        -2.272117
 O        -2.913783         3.127098        -1.674440
 H         2.034215        -0.518846         0.747181
 H         1.532277         1.268238         0.950663
 H         0.998953         0.073508         2.061742
 H        -2.773220         0.768559        -0.241981
 H        -4.410423        -0.919513        -0.624185
 H        -3.220108        -1.767177        -1.633275
 H        -2.992055        -1.843733         0.024961
 H        -1.417200         1.348447        -1.937219
 H        -1.842969        -0.235848        -2.783330
 H        -4.549873         2.641367        -2.749099
