19
Iteration:  4523
 C         1.574553        -0.617917         0.993996
 C         0.178114        -0.472081         0.503721
 C        -0.946257        -0.113843         0.245411
 C        -2.351165        -0.042372        -0.339454
 C        -2.779444        -1.316151        -0.998118
 C        -2.390468         1.173745        -1.271461
 O        -3.840441         1.577171        -1.729371
 C        -3.995049         2.438141        -2.782913
 O        -3.020862         3.011444        -3.273661
 H         1.764227        -1.762013         1.135026
 H         2.354018        -0.139309         0.326488
 H         1.705364        -0.228569         1.984702
 H        -3.109456         0.129801         0.426885
 H        -3.779190        -1.305059        -1.444287
 H        -2.051597        -1.707844        -1.816159
 H        -2.924597        -2.186828        -0.328642
 H        -2.033323         2.068478        -0.698295
 H        -1.885632         1.013406        -2.187381
 H        -4.981482         2.348240        -3.204091
