19
Iteration:  3585charge 0 multiplicity 1
 C         1.474787        -0.349999         1.113095
 C         0.034190        -0.400741         0.661078
 C        -0.898316        -0.274136        -0.066183
 C        -2.307638        -0.155825        -0.532765
 C        -2.999363        -1.442978        -0.913771
 C        -2.318522         0.800233        -1.663588
 O        -3.158656         2.085380        -1.368787
 C        -3.805384         2.779874        -2.364743
 O        -3.586852         2.522577        -3.540003
 H         1.557932        -1.194987         1.754365
 H         2.193218        -0.425802         0.234757
 H         1.756541         0.515754         1.796212
 H        -2.891334         0.250139         0.278634
 H        -4.110919        -1.406695        -0.847781
 H        -2.961138        -1.749381        -1.994973
 H        -2.567910        -2.307987        -0.301276
 H        -1.339523         1.160132        -2.044287
 H        -2.840305         0.491612        -2.702292
 H        -4.259197         3.699805        -2.068279
