19
Iteration:   448charge 0 multiplicity 1
 C         1.476981         0.127940        -0.006714
 C         0.026783         0.099912        -0.200704
 C        -1.208883         0.023189        -0.076225
 C        -2.671000        -0.148795        -0.027964
 C        -3.212714        -1.667038         0.004930
 C        -3.208807         0.585338        -1.187628
 O        -2.878918         2.073026        -1.267363
 C        -2.883245         2.644017        -2.493903
 O        -3.100719         2.019733        -3.535786
 H         1.905501         1.058817         0.248964
 H         1.658136        -0.653911         0.798653
 H         2.056682        -0.436897        -0.908619
 H        -3.083767         0.305762         0.834647
 H        -2.946618        -2.118069         0.989362
 H        -4.284512        -1.678223        -0.237206
 H        -2.727218        -2.235007        -0.826137
 H        -2.949280         0.192032        -2.161312
 H        -4.316899         0.672060        -1.163807
 H        -2.676178         3.665752        -2.508923
