19
Iteration:  3995
 C         1.465554        -0.376916         0.878777
 C         0.116557        -0.434831         0.301660
 C        -0.989511        -0.310351        -0.231770
 C        -2.472108        -0.030941        -0.421748
 C        -3.217612        -0.993624        -1.257414
 C        -2.299711         1.406144        -0.927150
 O        -3.438550         2.230242        -1.255253
 C        -3.700114         2.382380        -2.584634
 O        -3.153149         1.692467        -3.381300
 H         2.326567        -1.142397         0.541008
 H         1.977065         0.555567         0.886727
 H         1.404864        -0.634076         1.915858
 H        -2.943075        -0.006399         0.579370
 H        -4.209753        -1.070051        -0.835418
 H        -2.842472        -0.846962        -2.262544
 H        -2.683898        -1.984988        -1.052737
 H        -1.982226         1.999377        -0.009642
 H        -1.430689         1.495343        -1.651023
 H        -4.223341         3.376684        -2.662882
