19
Iteration:  1197charge 0 multiplicity 1
 C         0.972392         0.986931         0.475999
 C        -0.257714         0.250331         0.100303
 C        -1.476964         0.004455        -0.052872
 C        -2.745465        -0.355081        -0.638118
 C        -3.350013        -1.914007        -0.730953
 C        -2.770770         0.092485        -2.181691
 O        -2.109291         1.312340        -2.433405
 C        -2.441852         2.553296        -1.950396
 O        -3.520980         2.750225        -1.393850
 H         1.090541         1.939718        -0.115359
 H         1.115363         1.120852         1.644171
 H         1.758644         0.312271         0.211609
 H        -3.532316         0.222126        -0.119117
 H        -2.705571        -2.805525        -0.636840
 H        -4.329384        -2.129546        -0.264358
 H        -3.671511        -1.860435        -1.817502
 H        -2.251861        -0.643885        -2.854976
 H        -3.862751         0.204742        -2.476367
 H        -1.879579         3.441244        -2.205159
