19
Iteration:  2557
 C         1.241532         0.404288         0.649101
 C        -0.039908         0.083023         0.051927
 C        -1.225108        -0.234343        -0.206210
 C        -2.609112        -0.377340        -0.456126
 C        -3.028250        -1.861184        -0.679203
 C        -3.163628         0.413069        -1.624128
 O        -3.326511         1.848493        -1.243665
 C        -2.910485         2.776482        -2.110416
 O        -2.662597         2.566048        -3.266260
 H         2.115555        -0.285251         0.702857
 H         1.760614         1.387382         0.130643
 H         1.134792         0.702679         1.686124
 H        -3.221915        -0.120281         0.446457
 H        -4.133935        -1.851193        -0.758750
 H        -2.470745        -2.165064        -1.560640
 H        -2.582138        -2.433569         0.138111
 H        -2.410722         0.282016        -2.455558
 H        -4.118632        -0.078952        -1.761204
 H        -2.642340         3.714942        -1.547176
