19
Iteration:  2368charge 0 multiplicity 1
 C         1.120384         0.620735         0.297584
 C        -0.243816         0.219413        -0.013128
 C        -1.457845        -0.032982        -0.061797
 C        -2.776451        -0.358247        -0.334622
 C        -2.983224        -1.891775        -0.640752
 C        -3.324763         0.347954        -1.610502
 O        -3.326402         1.710237        -1.268683
 C        -2.722162         2.666357        -2.090924
 O        -2.067700         2.439436        -3.093279
 H         1.319191         1.674725         0.323604
 H         1.550318         0.188244         1.251361
 H         1.786781         0.118992        -0.336540
 H        -3.419066        -0.143489         0.553077
 H        -2.304314        -2.545789        -0.188967
 H        -3.945826        -2.183309        -0.248956
 H        -3.157792        -1.979408        -1.701985
 H        -2.633168         0.151511        -2.404151
 H        -4.369134        -0.025747        -1.745086
 H        -3.060964         3.722651        -1.887762
