19
Iteration:  1130charge 0 multiplicity 1
 C         1.036273         0.719374         0.687228
 C        -0.275255         0.258905         0.263118
 C        -1.330878         0.099644        -0.353414
 C        -2.733612        -0.300354        -0.862291
 C        -3.295111        -1.649708        -0.415576
 C        -2.821449         0.121638        -2.325724
 O        -2.048433         1.400819        -2.554316
 C        -2.649492         2.534991        -2.013330
 O        -3.610941         2.516753        -1.296091
 H         1.079627         1.689878         1.345757
 H         1.780332        -0.027838         1.166283
 H         1.481105         0.889894        -0.259180
 H        -3.418926         0.466940        -0.448153
 H        -3.104377        -1.882420         0.664226
 H        -4.361286        -1.690634        -0.817344
 H        -2.861930        -2.463963        -1.093115
 H        -2.439026        -0.585093        -3.115155
 H        -3.884555         0.410446        -2.578305
 H        -2.087711         3.316834        -2.627799
