19
Iteration:  3673
 C         1.494995        -0.780178         0.804872
 C         0.109424        -0.327673         0.697210
 C        -0.992496        -0.127777         0.269693
 C        -2.256561        -0.016070        -0.386644
 C        -2.819573        -1.238999        -1.058209
 C        -2.301595         1.271061        -1.451449
 O        -3.537700         1.999040        -1.356014
 C        -3.972641         2.550928        -2.544426
 O        -3.332056         2.370200        -3.569042
 H         1.817936        -0.980642         1.782947
 H         1.731239        -1.762458         0.311128
 H         2.182940        -0.027071         0.278353
 H        -2.968343         0.258353         0.388842
 H        -3.350816        -1.010261        -2.044555
 H        -1.998093        -1.954756        -1.162281
 H        -3.389753        -1.851338        -0.312166
 H        -1.495507         1.908942        -1.162580
 H        -2.006105         0.866993        -2.486810
 H        -4.988638         2.907148        -2.396461
