19
Iteration:  3387charge 0 multiplicity 1
 C         1.106442         0.002212         1.040052
 C        -0.177723        -0.045319         0.435703
 C        -1.336233        -0.094236         0.007943
 C        -2.652191        -0.358857        -0.518231
 C        -2.628529        -1.887429        -0.945651
 C        -2.923450         0.610991        -1.718903
 O        -2.280121         1.959262        -1.592672
 C        -2.882811         2.832264        -2.417942
 O        -3.941602         2.642755        -3.018710
 H         1.631800         0.493001         0.265856
 H         1.103768         0.613075         2.009232
 H         1.511282        -0.981802         1.354837
 H        -3.348753        -0.186538         0.297535
 H        -3.452008        -2.295425        -1.545293
 H        -1.712819        -2.070581        -1.565474
 H        -2.590723        -2.639817        -0.173277
 H        -2.568390         0.216854        -2.698817
 H        -4.006131         0.961002        -1.858633
 H        -2.310498         3.787380        -2.529291
