19
Iteration:  4955
 C         1.160737         0.203611         1.164219
 C         0.085233        -0.156204         0.256515
 C        -1.034732        -0.340008        -0.094038
 C        -2.360385        -0.089969        -0.779818
 C        -3.492567        -1.197991        -0.726338
 C        -2.043914         0.585087        -2.199579
 O        -3.403210         1.033931        -2.634183
 C        -3.577909         2.413847        -2.288423
 O        -2.897646         3.086912        -1.597899
 H         2.129711        -0.187250         0.803838
 H         1.347616         1.295775         1.003143
 H         1.174217        -0.103523         2.248725
 H        -2.824792         0.665872         0.016298
 H        -4.414964        -0.625699        -0.656089
 H        -3.643417        -1.763968        -1.763039
 H        -3.370939        -1.968711         0.088439
 H        -1.334838         1.451920        -2.090011
 H        -1.668453        -0.191508        -2.887768
 H        -4.632601         2.687243        -2.668607
