19
Iteration:  3665charge 0 multiplicity 1
 C         1.487334        -0.760012         0.832365
 C         0.133378        -0.317897         0.633598
 C        -1.006973        -0.109668         0.233853
 C        -2.332323         0.023533        -0.378982
 C        -2.764245        -1.287699        -1.038728
 C        -2.274374         1.126071        -1.421075
 O        -3.511758         2.035304        -1.314681
 C        -3.908445         2.523702        -2.528957
 O        -3.372526         2.409580        -3.609121
 H         1.722701        -0.995859         1.902044
 H         1.542094        -1.569388         0.206365
 H         2.016486         0.049367         0.404637
 H        -3.132233         0.315622         0.292859
 H        -3.340344        -1.000276        -1.935755
 H        -1.900981        -1.894606        -1.257395
 H        -3.475924        -1.818039        -0.441543
 H        -1.393814         1.790401        -1.131707
 H        -2.283097         0.851149        -2.516828
 H        -4.856873         3.013788        -2.358394
