19
Iteration:  4904
 C         1.180994         0.098758         1.199028
 C        -0.043757        -0.108970         0.462981
 C        -0.995217        -0.322362        -0.288594
 C        -2.297186         0.095953        -0.850549
 C        -3.305706        -1.033825        -0.598445
 C        -2.216776         0.460963        -2.308589
 O        -3.427257         1.137734        -2.770926
 C        -3.612887         2.307524        -2.275807
 O        -2.913501         2.946936        -1.481817
 H         2.143750         0.151414         0.548003
 H         1.176379         0.967375         1.844700
 H         1.321339        -0.751002         1.901736
 H        -2.484975         0.955980        -0.261096
 H        -4.216745        -0.786627        -1.200660
 H        -2.843345        -1.871063        -1.062307
 H        -3.372366        -1.267576         0.456934
 H        -1.329049         1.218287        -2.222804
 H        -2.163179        -0.447343        -2.950503
 H        -4.515209         2.715559        -2.720339
