19
Iteration:  4793charge 0 multiplicity 1
 C         1.311688        -0.537567         1.053230
 C         0.009029        -0.109755         0.515345
 C        -1.077460         0.170062         0.069477
 C        -2.348408         0.153506        -0.608755
 C        -3.071982        -1.236525        -0.551757
 C        -2.129976         0.710456        -2.010897
 O        -3.307184         1.056433        -2.703017
 C        -3.809292         2.365414        -2.628789
 O        -3.207585         3.152816        -1.892417
 H         1.964993         0.404416         1.103248
 H         1.239606        -0.812297         2.081494
 H         1.834184        -1.252698         0.312307
 H        -3.053910         0.758400        -0.105809
 H        -4.136348        -1.171977        -0.624104
 H        -2.858778        -2.030722        -1.302524
 H        -2.969222        -1.740346         0.419432
 H        -1.632960         1.792349        -1.941646
 H        -1.424062         0.224129        -2.710223
 H        -4.559736         2.527118        -3.391031
