19
Iteration:  3710charge 0 multiplicity 1
 C         1.551909        -0.870481         0.841576
 C         0.156929        -0.510300         0.570429
 C        -0.932777        -0.131270         0.164067
 C        -2.248988         0.158365        -0.325614
 C        -2.878400        -0.975595        -1.045335
 C        -2.260114         1.422509        -1.158938
 O        -3.610513         1.794925        -1.422906
 C        -3.991852         2.305737        -2.635277
 O        -3.317922         2.420812        -3.636556
 H         1.699416        -0.364721         1.889164
 H         1.621590        -1.927684         0.864693
 H         2.185488        -0.417552         0.124270
 H        -2.779542         0.381749         0.609942
 H        -3.727213        -0.671480        -1.674440
 H        -2.101830        -1.468640        -1.645862
 H        -3.376151        -1.675945        -0.401527
 H        -1.803876         2.354438        -0.609309
 H        -1.795891         1.287116        -2.144339
 H        -5.066193         2.487833        -2.634303
