19
Iteration:   805
 C         1.489287        -0.111720         0.625949
 C         0.072258        -0.278771         0.231782
 C        -1.133803        -0.013629         0.091967
 C        -2.491148         0.068012        -0.421347
 C        -3.162874        -1.354946        -0.160823
 C        -2.555666         0.461988        -1.892355
 O        -2.244913         1.861705        -2.020092
 C        -3.218465         2.670739        -2.558814
 O        -4.368594         2.374186        -2.686743
 H         1.827142         0.852394         1.051072
 H         1.764655        -0.920671         1.341771
 H         2.151158        -0.359612        -0.185032
 H        -3.063659         0.853354         0.127165
 H        -3.489323        -1.330680         0.910295
 H        -4.063083        -1.665584        -0.774458
 H        -2.436558        -2.210516        -0.216398
 H        -1.835083        -0.104711        -2.534342
 H        -3.600739         0.351273        -2.307325
 H        -2.665585         3.691051        -2.738777
