19
Iteration:  2701charge 0 multiplicity 1
 C         1.103315         0.469286         0.415649
 C        -0.335484         0.022199         0.345385
 C        -1.492406        -0.149337         0.098937
 C        -2.806172        -0.509390        -0.454416
 C        -2.845634        -1.964253        -0.894365
 C        -3.018566         0.517543        -1.622909
 O        -2.526368         1.774873        -1.272760
 C        -2.746000         2.835013        -2.114907
 O        -3.152399         2.613795        -3.242788
 H         1.119281         0.894626         1.421867
 H         1.785359        -0.437709         0.293479
 H         1.291685         1.377814         0.003621
 H        -3.436194        -0.278424         0.403475
 H        -3.872685        -2.144345        -0.968743
 H        -2.284184        -2.038907        -1.812383
 H        -2.419518        -2.448594        -0.040533
 H        -2.497699         0.056389        -2.506398
 H        -4.072183         0.705069        -1.846037
 H        -2.271701         3.674127        -1.606925
