19
Iteration:   598charge 0 multiplicity 1
 C         1.554637        -0.093998         0.426034
 C         0.105439        -0.037824         0.107044
 C        -1.130430        -0.114388        -0.020505
 C        -2.606110        -0.037759        -0.232679
 C        -3.121308        -1.503754        -0.001796
 C        -2.965542         0.478984        -1.571504
 O        -2.505950         1.944001        -1.570377
 C        -3.053140         2.717303        -2.561832
 O        -3.891895         2.315816        -3.320458
 H         2.041148        -0.771446        -0.455765
 H         2.032830         0.898116         0.235815
 H         1.711247        -0.602902         1.310129
 H        -3.095398         0.710715         0.452160
 H        -2.677296        -1.852921         0.928218
 H        -4.206163        -1.628781         0.015755
 H        -2.598153        -2.021147        -0.801524
 H        -2.577165         0.065316        -2.463735
 H        -4.037237         0.565165        -1.759189
 H        -2.853796         3.808906        -2.588853
