19
Iteration:   747charge 0 multiplicity 1
 C         1.490867        -0.356072         0.632694
 C         0.091460         0.076247         0.421281
 C        -1.046085         0.115134        -0.079509
 C        -2.445699         0.054202        -0.368932
 C        -3.047981        -1.381804        -0.095712
 C        -2.754502         0.320006        -1.903906
 O        -2.324812         1.782148        -1.936940
 C        -3.260187         2.678525        -2.404794
 O        -4.271015         2.460464        -2.992113
 H         1.827906        -0.403107         1.599767
 H         1.674832        -1.293687         0.072751
 H         2.070411         0.488064         0.020696
 H        -3.001408         0.782351         0.332489
 H        -2.756682        -1.810252         0.868540
 H        -4.152376        -1.167474        -0.049164
 H        -2.804837        -2.114567        -0.881360
 H        -2.084999        -0.269325        -2.599470
 H        -3.837141         0.284445        -2.188297
 H        -2.964460         3.783792        -2.367881
