19
Iteration:  4959charge 0 multiplicity 1
 C         1.157114         0.210749         1.144079
 C         0.068537        -0.142053         0.296428
 C        -1.076442        -0.372550        -0.117522
 C        -2.360433        -0.068758        -0.761388
 C        -3.456328        -1.221772        -0.742331
 C        -2.029584         0.586054        -2.154296
 O        -3.410717         1.052077        -2.646304
 C        -3.585684         2.378637        -2.280075
 O        -2.896055         3.116698        -1.610157
 H         2.105277        -0.300710         0.715163
 H         1.411079         1.215849         0.949687
 H         1.194180        -0.061745         2.192266
 H        -2.689208         0.636542        -0.028850
 H        -4.478002        -0.717793        -0.584217
 H        -3.596648        -1.757064        -1.647817
 H        -3.375040        -1.937934         0.063005
 H        -1.248921         1.464455        -2.166688
 H        -1.700101        -0.151705        -2.925619
 H        -4.537417         2.682141        -2.708936
