19
Iteration:  3541
 C         1.382151        -0.244996         1.296475
 C         0.191147        -0.311819         0.424235
 C        -0.890914        -0.294552        -0.072156
 C        -2.279664        -0.175179        -0.597202
 C        -3.166881        -1.513071        -0.852736
 C        -2.402510         0.718315        -1.942876
 O        -3.003919         2.012701        -1.408201
 C        -3.602567         2.842965        -2.231711
 O        -3.701228         2.562184        -3.419062
 H         1.627614        -1.230388         1.562921
 H         2.158015         0.359091         0.803535
 H         0.886623         0.182634         2.204855
 H        -2.793113         0.388920         0.158143
 H        -4.184874        -1.348625        -1.279061
 H        -2.587724        -2.171681        -1.552234
 H        -3.224571        -2.018670         0.162925
 H        -1.471880         0.935418        -2.518909
 H        -3.122104         0.015107        -2.575539
 H        -3.999115         3.668389        -1.664036
