19
Iteration:  1178
 C         0.978971         0.884066         0.513449
 C        -0.311157         0.363693         0.049374
 C        -1.456747        -0.120512        -0.053987
 C        -2.770820        -0.362738        -0.630559
 C        -3.334329        -1.821312        -0.732203
 C        -2.730282         0.123576        -2.117985
 O        -2.067308         1.374925        -2.585949
 C        -2.519773         2.498191        -1.983231
 O        -3.563158         2.731691        -1.341764
 H         0.942705         1.896851         0.441767
 H         1.118843         0.791696         1.572139
 H         1.912137         0.517759         0.025056
 H        -3.434822         0.307227        -0.020980
 H        -2.568875        -2.386851        -0.201939
 H        -4.252467        -1.798047        -0.186655
 H        -3.603265        -2.334977        -1.661509
 H        -2.096465        -0.587190        -2.682778
 H        -3.767787         0.054031        -2.517408
 H        -1.636533         3.278681        -2.076113
