19
Iteration:  4193charge 0 multiplicity 1
 C         1.315642        -1.213221         1.236958
 C         0.193470        -0.501365         0.601887
 C        -0.751618         0.116575         0.042526
 C        -2.106643         0.332065        -0.537628
 C        -2.606693        -0.912250        -1.260528
 C        -2.296640         1.641246        -1.243904
 O        -3.675880         1.949254        -1.303941
 C        -4.109401         2.079713        -2.609351
 O        -3.464337         2.222471        -3.649053
 H         1.549845        -1.027006         2.368335
 H         1.263218        -2.282352         1.011519
 H         2.246276        -0.837540         0.888123
 H        -2.663476         0.321323         0.459025
 H        -2.669439        -0.673342        -2.412734
 H        -1.749848        -1.463954        -0.996833
 H        -3.597107        -1.137474        -0.884424
 H        -1.867034         2.426060        -0.722366
 H        -1.913885         1.663720        -2.317500
 H        -5.257741         1.980801        -2.548684
