19
Iteration:  2661charge 0 multiplicity 1
 C         0.977875         0.456587         0.214283
 C        -0.356937         0.127206         0.291524
 C        -1.561634        -0.235915         0.294198
 C        -2.787446        -0.528908        -0.380933
 C        -2.899944        -2.003055        -0.787768
 C        -2.708129         0.463007        -1.669882
 O        -2.715520         1.811351        -1.213002
 C        -2.780998         2.809736        -2.085568
 O        -3.036413         2.730498        -3.268132
 H         1.616383         0.311332         1.135249
 H         1.677551        -0.006738        -0.528545
 H         1.016563         1.607503        -0.109364
 H        -3.810050        -0.371334         0.071910
 H        -3.943003        -2.237737        -1.250871
 H        -2.087957        -2.273588        -1.603072
 H        -2.819478        -2.671606         0.198047
 H        -1.755113         0.289706        -2.158116
 H        -3.481076         0.148063        -2.460596
 H        -2.193078         3.710695        -1.720628
