19
Iteration:  4551charge 0 multiplicity 1
 C         1.482788        -0.722836         0.832424
 C         0.078602        -0.349723         0.642451
 C        -1.062221        -0.080720         0.340731
 C        -2.375234         0.075817        -0.305552
 C        -2.710998        -1.193815        -0.989098
 C        -2.330459         1.248315        -1.328122
 O        -3.651747         1.276166        -1.828668
 C        -3.891328         2.381517        -2.666781
 O        -3.130375         3.093788        -3.256170
 H         1.356236        -1.738434         1.046164
 H         2.046649        -0.802632        -0.068733
 H         2.073092        -0.267620         1.684314
 H        -3.255262         0.239980         0.371726
 H        -3.756521        -1.485227        -1.027281
 H        -2.396828        -1.210701        -1.982783
 H        -2.278030        -2.092649        -0.587433
 H        -2.099092         2.207381        -0.901787
 H        -1.700810         0.884962        -2.216662
 H        -5.006719         2.283653        -2.908534
