19
Iteration:  3978charge 0 multiplicity 1
 C         1.425899        -0.370567         0.815795
 C         0.112212        -0.442951         0.272702
 C        -1.030982        -0.385740        -0.072110
 C        -2.382735        -0.016811        -0.402700
 C        -3.146735        -1.086273        -1.251648
 C        -2.307678         1.498981        -0.818518
 O        -3.487819         2.271571        -1.239081
 C        -3.611196         2.383040        -2.583688
 O        -3.155068         1.712916        -3.466163
 H         2.101220        -0.815230         0.171622
 H         1.744443         0.727618         0.678061
 H         1.556655        -0.884800         1.813346
 H        -2.955817        -0.037936         0.549503
 H        -4.201971        -0.728304        -1.443857
 H        -2.848631        -1.254945        -2.321702
 H        -3.182236        -2.088654        -0.846525
 H        -1.853119         2.042685        -0.028447
 H        -1.577780         1.461050        -1.689263
 H        -4.432869         3.080954        -2.752042
