19
Iteration:  4781charge 0 multiplicity 1
 C         1.372769        -0.500965         1.026002
 C         0.011738        -0.222990         0.614199
 C        -1.088427         0.032824         0.071052
 C        -2.411831         0.183494        -0.583917
 C        -3.042999        -1.202429        -0.564746
 C        -2.086555         0.777873        -1.942800
 O        -3.336796         1.046386        -2.762025
 C        -3.760068         2.335485        -2.615762
 O        -3.302418         3.252691        -1.999378
 H         1.977534         0.412002         1.135487
 H         1.359669        -1.066161         1.944323
 H         1.944326        -1.245479         0.362229
 H        -2.991996         0.914550        -0.071555
 H        -4.072721        -1.045211        -0.582939
 H        -2.662245        -1.838960        -1.412432
 H        -2.714821        -1.605745         0.393272
 H        -1.493161         1.714854        -1.730206
 H        -1.558463        -0.018431        -2.472629
 H        -4.732037         2.389267        -3.070084
