19
Iteration:  1710charge 0 multiplicity 1
 C         1.449744        -0.089281         0.899871
 C         0.092424        -0.152344         0.348735
 C        -1.085790        -0.096811         0.118692
 C        -2.419918        -0.125491        -0.385283
 C        -2.972437        -1.582769        -0.439594
 C        -2.642131         0.522502        -1.803937
 O        -2.501491         1.966467        -1.691850
 C        -3.406086         2.719160        -2.415832
 O        -4.109371         2.484413        -3.345694
 H         1.978007        -0.941037         0.393709
 H         1.839701         0.952044         0.756022
 H         1.393518        -0.497034         1.838429
 H        -2.995540         0.613037         0.295371
 H        -3.705296        -1.556167        -1.264800
 H        -2.096816        -2.084716        -0.875423
 H        -3.237345        -2.043121         0.499813
 H        -1.960843         0.141024        -2.519802
 H        -3.666084         0.257359        -2.025452
 H        -3.195586         3.842088        -2.015841
