19
Iteration:   441charge 0 multiplicity 1
 C         1.475637         0.085661        -0.018201
 C        -0.007098         0.146098        -0.166506
 C        -1.201556        -0.011960        -0.125020
 C        -2.674814        -0.191495         0.022323
 C        -3.172749        -1.662615         0.025550
 C        -3.313235         0.667629        -1.241404
 O        -2.866446         2.071086        -1.258780
 C        -2.899203         2.625241        -2.520563
 O        -3.059764         2.009653        -3.518133
 H         1.873631         1.156352         0.159130
 H         1.713766        -0.729675         0.665015
 H         2.086648        -0.161156        -0.830462
 H        -2.963713         0.318621         0.983156
 H        -2.895784        -2.310767         0.862063
 H        -4.255918        -1.663099        -0.047743
 H        -2.701274        -2.082976        -0.866877
 H        -2.809475         0.166929        -2.117000
 H        -4.397544         0.596430        -1.275821
 H        -2.526363         3.743991        -2.457939
