19
Iteration:  1346
 C         1.028896         0.604391         0.823603
 C        -0.297553         0.289609         0.301913
 C        -1.394623        -0.003530        -0.205797
 C        -2.650729        -0.285291        -0.837894
 C        -3.131638        -1.782041        -0.532472
 C        -2.833571         0.267514        -2.387369
 O        -2.111573         1.423010        -2.621463
 C        -2.747476         2.612159        -2.147825
 O        -3.606689         2.583943        -1.307255
 H         1.866204        -0.159557         1.002280
 H         1.442680         1.317682         0.090121
 H         0.983953         1.098327         1.834268
 H        -3.401909         0.310656        -0.226272
 H        -4.109230        -1.638821        -0.015583
 H        -3.203680        -2.352437        -1.554986
 H        -2.435547        -2.392735         0.133687
 H        -2.468414        -0.514483        -3.051611
 H        -3.882934         0.426442        -2.576038
 H        -2.183490         3.583508        -2.562534
