19
Iteration:   726
 C         1.519428        -0.321046         0.577681
 C         0.058660         0.017037         0.417425
 C        -1.067714         0.073913         0.015765
 C        -2.424954        -0.078178        -0.480773
 C        -3.010272        -1.382006        -0.069863
 C        -2.799777         0.493965        -1.826561
 O        -2.429579         1.847876        -1.865328
 C        -3.168753         2.650975        -2.551517
 O        -4.248074         2.407447        -2.989153
 H         1.486385        -0.621980         1.545113
 H         1.984251        -1.032124        -0.125116
 H         2.290481         0.590943         0.555407
 H        -2.979852         0.672386         0.195044
 H        -2.409129        -1.765079         0.768733
 H        -4.107461        -1.304169         0.315997
 H        -3.015621        -2.172690        -0.845439
 H        -2.326444         0.036610        -2.768366
 H        -3.927166         0.534252        -1.953628
 H        -2.663678         3.754951        -2.645798
