19
Iteration:   944charge 0 multiplicity 1
 C         1.322743         0.017870         0.853717
 C        -0.021526         0.120920         0.296535
 C        -1.094831         0.018741        -0.283330
 C        -2.483400        -0.037467        -0.630231
 C        -3.214880        -1.511886        -0.195157
 C        -2.702322         0.302986        -2.115326
 O        -2.133456         1.701773        -2.408671
 C        -3.062195         2.642645        -2.388002
 O        -4.200278         2.474295        -2.043267
 H         1.939901        -0.715910         0.269118
 H         1.916077         0.944066         1.017927
 H         1.024438        -0.446860         1.914234
 H        -2.901279         0.841250        -0.083779
 H        -3.410929        -1.510606         0.890748
 H        -4.129429        -1.593420        -0.786356
 H        -2.537524        -2.307046        -0.474504
 H        -2.191723        -0.417436        -2.787210
 H        -3.816823         0.298648        -2.292818
 H        -2.694221         3.676991        -2.533353
