19
Iteration:  2309charge 0 multiplicity 1
 C         0.988981         0.946010         0.162787
 C        -0.263430         0.286835        -0.017477
 C        -1.336157        -0.312273        -0.287077
 C        -2.757517        -0.459010        -0.522759
 C        -3.339494        -1.995318        -0.453221
 C        -3.286840         0.329878        -1.663080
 O        -3.270353         1.707857        -1.160776
 C        -2.493759         2.612431        -1.945670
 O        -1.959452         2.458039        -3.038634
 H         0.790253         1.821213         0.880317
 H         1.776531         0.456059         0.671642
 H         1.115400         1.602952        -0.816792
 H        -3.162634         0.061240         0.359990
 H        -3.523449        -2.238318         0.629707
 H        -4.307817        -1.986069        -0.939277
 H        -2.632330        -2.785413        -0.588989
 H        -2.846732         0.221165        -2.693284
 H        -4.274008        -0.082797        -1.810566
 H        -2.581492         3.591971        -1.412977
