19
Iteration:  3933
 C         1.430224        -0.438369         0.530877
 C         0.004951        -0.420121         0.419208
 C        -1.168760        -0.255551         0.272948
 C        -2.456918         0.006032        -0.216078
 C        -3.004420        -0.857537        -1.382827
 C        -2.185447         1.449861        -0.882901
 O        -3.448070         2.078376        -1.230427
 C        -3.769493         2.152050        -2.576542
 O        -3.057500         1.873768        -3.515245
 H         1.857494        -0.486100        -0.438684
 H         1.762215         0.562238         0.968828
 H         1.705352        -1.337293         1.079667
 H        -3.150945         0.093236         0.624909
 H        -3.416052        -0.336354        -2.294853
 H        -2.313869        -1.542115        -1.850360
 H        -3.783429        -1.543583        -0.978368
 H        -1.627660         2.069087        -0.197727
 H        -1.606992         1.301888        -1.872677
 H        -4.769643         2.559343        -2.709342
