19
Iteration:  3580
 C         1.406529        -0.324521         1.110592
 C         0.092811        -0.383842         0.702216
 C        -0.864845        -0.299248        -0.081335
 C        -2.281866        -0.176982        -0.537153
 C        -3.041883        -1.443755        -0.922147
 C        -2.332866         0.819475        -1.705703
 O        -3.143669         2.070104        -1.353292
 C        -3.775225         2.763852        -2.360648
 O        -3.605735         2.538634        -3.549147
 H         1.617395        -1.278075         1.701529
 H         2.253256        -0.324861         0.385664
 H         1.705728         0.468932         1.768314
 H        -2.839760         0.325568         0.311570
 H        -4.119182        -1.320033        -0.811363
 H        -2.922003        -1.752387        -1.976840
 H        -2.686935        -2.289098        -0.381853
 H        -1.392768         1.012422        -2.236152
 H        -2.974360         0.480414        -2.433391
 H        -4.315073         3.714567        -1.997860
