19
Iteration:  4782
 C         1.369343        -0.506639         1.023823
 C         0.014158        -0.214500         0.612216
 C        -1.091400         0.042941         0.067698
 C        -2.409262         0.184008        -0.588186
 C        -3.041205        -1.205337        -0.566206
 C        -2.089668         0.766622        -1.945215
 O        -3.334057         1.045770        -2.758075
 C        -3.765814         2.342058        -2.618733
 O        -3.294617         3.245437        -1.990562
 H         1.979882         0.436430         1.141318
 H         1.343017        -1.047806         1.961024
 H         1.951213        -1.254833         0.369079
 H        -3.016805         0.904187        -0.079056
 H        -4.088085        -1.023859        -0.586396
 H        -2.688591        -1.873891        -1.390625
 H        -2.707435        -1.606137         0.394129
 H        -1.509856         1.756096        -1.718763
 H        -1.538091        -0.024721        -2.481755
 H        -4.735459         2.400306        -3.094086
