19
Iteration:  4225
 C         1.413438        -1.079217         1.302222
 C         0.187803        -0.549863         0.653808
 C        -0.771223        -0.122221         0.031750
 C        -2.090159         0.312172        -0.443162
 C        -2.801767        -0.697074        -1.333406
 C        -2.134118         1.727780        -1.178516
 O        -3.568222         1.758524        -1.438219
 C        -4.156980         2.051152        -2.635019
 O        -3.560861         2.297072        -3.639378
 H         1.637234        -0.607033         2.273694
 H         1.452571        -2.098082         1.553789
 H         2.144823        -1.092190         0.520732
 H        -2.614346         0.566288         0.488139
 H        -3.214206        -0.427196        -2.371682
 H        -2.066301        -1.405343        -1.596782
 H        -3.620507        -1.371411        -1.009806
 H        -1.873423         2.419157        -0.481092
 H        -1.529145         1.707192        -2.115569
 H        -5.258405         1.930997        -2.437631
