19
Iteration:  1359
 C         1.029188         0.584921         0.874940
 C        -0.265196         0.205473         0.354949
 C        -1.311669         0.028263        -0.328645
 C        -2.691687        -0.200061        -0.817241
 C        -3.127949        -1.687766        -0.556640
 C        -2.861235         0.136455        -2.302491
 O        -2.084111         1.536544        -2.648251
 C        -2.793511         2.526335        -2.171397
 O        -3.627402         2.556317        -1.299016
 H         1.521814        -0.407922         1.210027
 H         1.688894         1.164480         0.150779
 H         0.823221         1.253718         1.679873
 H        -3.325281         0.541095        -0.300294
 H        -3.934132        -1.865814         0.164117
 H        -3.521383        -2.205405        -1.476207
 H        -2.183577        -2.231036        -0.220427
 H        -2.367771        -0.506913        -3.019408
 H        -3.883515         0.320851        -2.564904
 H        -2.372976         3.552984        -2.724275
