19
Iteration:  3096
 C         1.311340        -0.165700         0.991973
 C        -0.110768         0.092793         0.459094
 C        -1.164506        -0.000626        -0.118790
 C        -2.490344        -0.348036        -0.548387
 C        -2.720188        -1.839629        -0.739939
 C        -2.879435         0.519455        -1.851010
 O        -2.875681         1.877946        -1.343403
 C        -3.071476         2.773389        -2.273234
 O        -3.615551         2.817432        -3.357236
 H         1.048621        -1.112307         1.453342
 H         1.791439        -0.462983         0.077717
 H         1.742691         0.566081         1.691514
 H        -3.229600        -0.005115         0.159698
 H        -3.695505        -1.972478        -1.272284
 H        -1.949028        -2.387138        -1.378047
 H        -2.796619        -2.353182         0.226478
 H        -2.039588         0.510985        -2.505428
 H        -3.930724         0.259950        -2.189484
 H        -2.804581         3.704801        -1.727771
