19
Iteration:  4671charge 0 multiplicity 1
 C         1.534863        -0.796799         1.136149
 C         0.244741        -0.447988         0.397985
 C        -0.856782        -0.136762         0.030649
 C        -2.349409         0.132492        -0.386526
 C        -3.099673        -1.205318        -0.606431
 C        -2.285661         1.303101        -1.397901
 O        -3.321604         1.140527        -2.366686
 C        -3.921521         2.266249        -2.916472
 O        -3.496833         3.373047        -2.686423
 H         1.591280        -0.555753         2.179574
 H         1.807336        -1.854989         1.021502
 H         2.310992        -0.136685         0.585398
 H        -2.761141         0.533002         0.510869
 H        -3.790321        -1.320005        -1.412772
 H        -2.441065        -2.051977        -0.723159
 H        -3.588527        -1.484979         0.304627
 H        -2.388117         2.264522        -0.873247
 H        -1.311413         1.314703        -1.966276
 H        -4.768408         1.933644        -3.520476
