19
Iteration:  3495
 C         1.194056        -0.245731         1.254276
 C         0.033293        -0.196636         0.393513
 C        -1.059352        -0.318084        -0.101828
 C        -2.420853        -0.197530        -0.649648
 C        -2.854452        -1.765221        -0.646728
 C        -2.459357         0.711354        -1.971918
 O        -2.774419         2.055617        -1.483072
 C        -3.433974         2.946504        -2.263905
 O        -3.821166         2.614223        -3.331903
 H         1.834123        -0.999916         0.907837
 H         1.698261         0.756385         0.975881
 H         0.961398        -0.420245         2.300936
 H        -3.003194         0.412979         0.045508
 H        -3.726362        -1.664318        -1.341642
 H        -2.110485        -2.383314        -1.267225
 H        -3.132651        -2.148064         0.359645
 H        -1.451999         0.519169        -2.415790
 H        -3.256470         0.409177        -2.674303
 H        -3.505474         3.827846        -1.660967
