19
Iteration:  4647
 C         1.478819        -0.838175         0.990730
 C         0.171615        -0.540159         0.461267
 C        -0.911946        -0.008213         0.167604
 C        -2.286855         0.128083        -0.286175
 C        -2.862674        -1.230528        -0.580779
 C        -2.341565         1.341142        -1.369679
 O        -3.481591         1.111133        -2.325080
 C        -3.812325         2.283522        -2.999939
 O        -3.481053         3.415220        -2.781539
 H         1.462086        -1.004057         2.052843
 H         1.777016        -1.897518         0.623516
 H         2.252624        -0.012134         0.766545
 H        -2.683052         0.477268         0.629726
 H        -3.780200        -1.179850        -1.291700
 H        -2.283654        -1.947176        -1.084958
 H        -3.165631        -1.828451         0.289013
 H        -2.574244         2.236267        -0.898214
 H        -1.428550         1.392641        -2.021294
 H        -4.634731         1.955051        -3.606450
