19
Iteration:  4627charge 0 multiplicity 1
 C         1.502256        -0.927553         0.894527
 C         0.125199        -0.434496         0.563009
 C        -0.942529        -0.028468         0.226055
 C        -2.362791         0.274743        -0.183695
 C        -2.764606        -1.213191        -0.724545
 C        -2.391845         1.232242        -1.336144
 O        -3.513138         1.169249        -2.268015
 C        -3.850763         2.251038        -2.952072
 O        -3.428631         3.357533        -2.854529
 H         1.534346        -1.310537         1.878529
 H         1.860283        -1.819955         0.413365
 H         2.181108         0.012930         0.939849
 H        -2.998677         0.581427         0.638019
 H        -3.798567        -1.262615        -1.089082
 H        -2.163179        -1.487009        -1.565583
 H        -2.500579        -1.915776         0.042702
 H        -2.280408         2.264775        -1.026800
 H        -1.412393         1.029716        -1.910932
 H        -4.379927         1.870106        -3.848800
