19
Iteration:  4328
 C         1.400601        -0.584545         1.049796
 C         0.038375        -0.260055         0.632435
 C        -1.088936        -0.185229         0.194029
 C        -2.376812        -0.070970        -0.521587
 C        -2.709386        -1.359494        -1.411362
 C        -2.307950         1.249158        -1.324400
 O        -3.508813         2.047223        -1.225027
 C        -3.748907         2.562302        -2.447298
 O        -3.344149         2.254857        -3.560621
 H         2.190322         0.089978         0.639943
 H         1.299930        -0.700712         2.189386
 H         1.682969        -1.499264         0.635068
 H        -3.186873         0.172053         0.235318
 H        -3.652541        -1.795321        -1.499252
 H        -2.564953        -1.267388        -2.544351
 H        -1.982989        -2.138325        -1.154704
 H        -1.396181         1.868152        -0.973180
 H        -2.010817         0.990019        -2.308012
 H        -4.460351         3.464932        -2.336835
