19
Iteration:   250
 C         1.123530         0.481839        -0.827981
 C        -0.208199         0.239258        -0.345661
 C        -1.345593         0.117143        -0.026749
 C        -2.775924        -0.137072         0.025057
 C        -3.272537        -1.596290         0.236975
 C        -3.580474         0.454553        -1.193069
 O        -3.404894         1.912908        -1.306232
 C        -2.385748         2.422593        -2.214173
 O        -1.890686         1.857727        -3.148489
 H         1.654268        -0.449345        -1.013374
 H         0.937076         1.000679        -1.828556
 H         1.737861         1.137415        -0.148537
 H        -3.141685         0.332228         0.943995
 H        -2.686774        -2.085252         1.012371
 H        -4.278623        -1.434197         0.655154
 H        -3.271825        -2.237905        -0.650604
 H        -3.240121         0.042485        -2.136223
 H        -4.665301         0.297432        -1.082929
 H        -2.162711         3.499079        -1.957668
