19
Iteration:  3611
 C         1.457022        -0.480142         0.990470
 C         0.108063        -0.377269         0.479730
 C        -1.061570        -0.239182         0.195936
 C        -2.373978        -0.062074        -0.507245
 C        -2.881955        -1.537484        -0.892798
 C        -2.243499         1.072147        -1.611767
 O        -3.268912         2.023052        -1.318366
 C        -3.726700         2.718568        -2.434470
 O        -3.569866         2.482810        -3.598022
 H         1.309552        -1.147841         1.980735
 H         2.117227        -0.881143         0.246443
 H         1.707544         0.479433         1.414957
 H        -3.153240         0.306611         0.187666
 H        -3.953840        -1.727345        -0.997136
 H        -2.491882        -1.797911        -1.850727
 H        -2.491768        -2.173052        -0.140851
 H        -1.232550         1.567568        -1.739718
 H        -2.606161         0.803069        -2.644871
 H        -4.350381         3.577738        -2.072695
