19
Iteration:  2641charge 0 multiplicity 1
 C         1.073720         0.539755         0.168801
 C        -0.342600         0.075088         0.372691
 C        -1.487551        -0.198655         0.308234
 C        -2.787302        -0.485994        -0.416713
 C        -2.998453        -1.951352        -0.806092
 C        -2.685884         0.360477        -1.668960
 O        -2.786128         1.746434        -1.189641
 C        -2.832575         2.818037        -2.074574
 O        -2.931461         2.744636        -3.289792
 H         1.621866        -0.016935         0.931083
 H         1.481381         0.210573        -0.748456
 H         1.215626         1.685187         0.056472
 H        -3.664285        -0.164856         0.185721
 H        -3.773114        -2.245083        -1.552627
 H        -2.174345        -2.525446        -1.231710
 H        -3.277258        -2.685195         0.002327
 H        -1.803313         0.266272        -2.288742
 H        -3.569924         0.204673        -2.350533
 H        -3.055085         3.764504        -1.546303
