19
Iteration:  3969
 C         1.442905        -0.359112         0.739594
 C         0.128240        -0.449332         0.280551
 C        -1.064260        -0.422280         0.018059
 C        -2.431469        -0.045103        -0.347889
 C        -3.185349        -1.096130        -1.338113
 C        -2.231175         1.562845        -0.809243
 O        -3.501301         2.266189        -1.210090
 C        -3.666380         2.348215        -2.600127
 O        -3.120672         1.726515        -3.516371
 H         2.132114        -0.816669         0.035638
 H         1.810827         0.689812         0.995503
 H         1.687959        -0.860671         1.756385
 H        -3.066598        -0.050872         0.616417
 H        -4.153671        -0.707443        -1.565175
 H        -2.352684        -1.352671        -2.002134
 H        -3.339622        -1.948830        -0.687577
 H        -1.793669         2.220838        -0.090435
 H        -1.635369         1.559396        -1.670871
 H        -4.481674         3.122624        -2.717681
