19
Iteration:   714
 C         1.528492        -0.303794         0.640230
 C         0.122392        -0.021075         0.324187
 C        -1.052485         0.020020        -0.024678
 C        -2.494504        -0.010780        -0.369916
 C        -3.009875        -1.492365        -0.052097
 C        -2.860346         0.495200        -1.813627
 O        -2.350200         1.923965        -1.815854
 C        -3.190328         2.715167        -2.626863
 O        -4.279045         2.397827        -3.034108
 H         1.762064        -0.858186         1.463075
 H         1.964314        -0.888651        -0.173345
 H         2.041083         0.768809         0.757324
 H        -3.073162         0.675224         0.348670
 H        -2.435110        -1.901465         0.779927
 H        -4.092859        -1.358195         0.296014
 H        -3.031550        -2.180425        -0.924415
 H        -2.298959        -0.099724        -2.601737
 H        -3.953357         0.397713        -2.000074
 H        -2.565163         3.705961        -2.916553
