19
Iteration:  3659
 C         1.468206        -0.729238         0.849554
 C         0.106709        -0.317776         0.587063
 C        -1.021589        -0.100089         0.221499
 C        -2.392946         0.060358        -0.380002
 C        -2.742132        -1.331975        -1.024812
 C        -2.260189         1.087846        -1.395371
 O        -3.472444         2.038378        -1.304874
 C        -3.875628         2.495826        -2.498575
 O        -3.397693         2.435731        -3.633415
 H         1.748830        -0.941059         1.904204
 H         1.614370        -1.655706         0.090237
 H         2.271420         0.079641         0.607312
 H        -3.145990         0.411328         0.392648
 H        -3.284606        -1.135166        -1.956371
 H        -1.876486        -1.898487        -1.478101
 H        -3.518280        -1.888823        -0.434831
 H        -1.419705         1.747624        -1.310248
 H        -2.317790         0.747984        -2.388290
 H        -4.779630         3.205058        -2.357402
