19
Iteration:   794
 C         1.492019        -0.215279         0.586027
 C         0.098645        -0.204712         0.180649
 C        -1.130974        -0.001048         0.216912
 C        -2.478659        -0.016181        -0.408212
 C        -3.108203        -1.294327        -0.112559
 C        -2.596001         0.433242        -1.909806
 O        -2.228907         1.836436        -2.055040
 C        -3.224877         2.695809        -2.495527
 O        -4.380660         2.412416        -2.782042
 H         1.282959         0.690462         1.171573
 H         1.645529        -0.979599         1.384648
 H         2.303745        -0.000777        -0.099724
 H        -3.118931         0.741555         0.108598
 H        -3.438484        -1.422923         0.959167
 H        -3.967023        -1.488632        -0.847211
 H        -2.268968        -2.013315        -0.354533
 H        -1.881318        -0.104971        -2.590955
 H        -3.678217         0.203336        -2.182872
 H        -2.976847         3.851753        -2.488887
