19
Iteration:  3690charge 0 multiplicity 1
 C         1.599654        -0.823353         0.817761
 C         0.159578        -0.425704         0.733556
 C        -0.944676        -0.181821         0.250718
 C        -2.278250         0.203285        -0.426393
 C        -2.879353        -1.231208        -1.078385
 C        -2.204661         1.398253        -1.344552
 O        -3.660870         1.904859        -1.395389
 C        -3.993145         2.394673        -2.574628
 O        -3.304296         2.384592        -3.575168
 H         1.931598        -0.762081         1.904574
 H         1.526707        -1.898887         0.467916
 H         2.040329        -0.196350         0.049005
 H        -3.106703         0.493752         0.287490
 H        -3.533760        -0.889777        -1.832475
 H        -2.066172        -1.934574        -1.378350
 H        -3.549472        -1.735798        -0.360013
 H        -1.596565         2.265953        -0.962972
 H        -2.009516         1.219970        -2.360060
 H        -4.941638         3.025473        -2.456857
