19
Iteration:  1425charge 0 multiplicity 1
 C         1.081089         0.289458         1.098272
 C        -0.121376         0.233052         0.387088
 C        -1.093891         0.072296        -0.265134
 C        -2.505422        -0.144286        -0.854285
 C        -3.119130        -1.577324        -0.487602
 C        -2.686196         0.157236        -2.374627
 O        -2.331434         1.544258        -2.761118
 C        -2.966701         2.580756        -2.231437
 O        -3.904482         2.584095        -1.446508
 H         0.934914        -0.164279         2.154411
 H         2.058312        -0.260821         0.865278
 H         1.511116         1.199087         1.384503
 H        -3.240440         0.559763        -0.443742
 H        -2.346548        -2.315078        -0.144385
 H        -3.925635        -1.260167         0.214307
 H        -3.478311        -1.966681        -1.499822
 H        -1.975942        -0.408737        -2.967988
 H        -3.678683        -0.038533        -2.708500
 H        -2.363420         3.498781        -2.429248
