19
Iteration:   999
 C         1.337362         0.090635         0.932252
 C        -0.038208         0.022162         0.333512
 C        -1.206202         0.162286        -0.076214
 C        -2.566209        -0.114774        -0.615859
 C        -2.993451        -1.524877        -0.390471
 C        -2.757500         0.247583        -2.140968
 O        -2.342459         1.533665        -2.724709
 C        -3.020528         2.580766        -2.386853
 O        -4.031878         2.717803        -1.753730
 H         1.826734        -0.844658         1.190492
 H         1.950896         0.618001         0.182196
 H         1.249273         0.763780         1.781579
 H        -3.120162         0.510155         0.094838
 H        -3.877166        -1.569256         0.290137
 H        -3.491649        -1.925683        -1.277127
 H        -2.289536        -2.243054        -0.002160
 H        -2.150706        -0.357445        -2.843527
 H        -3.836039         0.146904        -2.485635
 H        -2.557778         3.546862        -2.772612
