19
Iteration:  4873
 C         1.276367        -0.098030         1.185326
 C        -0.039425        -0.173353         0.577675
 C        -1.044559         0.094557        -0.156671
 C        -2.295928         0.038391        -0.939282
 C        -3.242788        -1.155315        -0.438115
 C        -2.224729         0.474486        -2.453159
 O        -3.422442         1.173701        -2.834633
 C        -3.609778         2.319521        -2.305570
 O        -2.988464         2.972557        -1.496014
 H         2.060109         0.263104         0.428129
 H         1.223466         0.458009         2.170410
 H         1.499212        -1.093431         1.557236
 H        -2.868536         0.925565        -0.619512
 H        -4.152783        -1.230653        -1.169112
 H        -2.660584        -1.999579        -0.580985
 H        -3.718616        -1.011127         0.531699
 H        -1.315894         1.194639        -2.465492
 H        -1.918895        -0.272409        -3.217812
 H        -4.624507         2.646862        -2.615526
