19
Iteration:  2047
 C         1.203315         0.803986         0.143564
 C        -0.224192         0.284419        -0.087228
 C        -1.393723        -0.028929        -0.232196
 C        -2.787551        -0.349622        -0.310461
 C        -3.027149        -1.908575        -0.597918
 C        -3.475529         0.356671        -1.463647
 O        -3.286191         1.771456        -1.226225
 C        -2.749765         2.575421        -2.093385
 O        -2.046938         2.198954        -3.021841
 H         1.826969         1.345475        -0.589851
 H         1.150217         1.565262         0.972199
 H         1.738979        -0.021354         0.670030
 H        -3.291871        -0.040961         0.633662
 H        -2.088059        -2.411841        -0.435356
 H        -3.738582        -2.430653         0.059325
 H        -3.419146        -2.114759        -1.585638
 H        -3.077279         0.120173        -2.443227
 H        -4.617506         0.161098        -1.541563
 H        -2.890570         3.722031        -1.703038
