19
Iteration:  2376
 C         1.193523         0.524091         0.314037
 C        -0.225800         0.247040         0.053759
 C        -1.406893         0.036131        -0.031735
 C        -2.827539        -0.375161        -0.314659
 C        -2.959618        -1.961436        -0.671726
 C        -3.353072         0.316504        -1.576738
 O        -3.344661         1.807690        -1.301689
 C        -2.754006         2.699955        -2.134026
 O        -2.073953         2.420395        -3.094345
 H         1.147640         1.621750         0.188369
 H         1.512310         0.375656         1.352040
 H         1.766411        -0.103772        -0.495135
 H        -3.520799        -0.105585         0.497648
 H        -2.113445        -2.585222        -0.382655
 H        -3.880300        -2.315742        -0.219873
 H        -2.951180        -2.098535        -1.753303
 H        -2.779300         0.135818        -2.526832
 H        -4.398271         0.201752        -1.804968
 H        -3.277048         3.612499        -1.808670
