19
Iteration:  3130
 C         1.177627        -0.026216         0.837275
 C        -0.223209         0.092337         0.421417
 C        -1.352970        -0.043481         0.046066
 C        -2.622957        -0.384592        -0.544973
 C        -2.618518        -1.920671        -0.734583
 C        -2.892615         0.484685        -1.835373
 O        -2.553283         1.829330        -1.466644
 C        -3.076620         2.843891        -2.186169
 O        -3.583675         2.837502        -3.275120
 H         1.225228        -0.654993         1.698331
 H         1.780521        -0.611935         0.083386
 H         1.858243         0.734769         1.027942
 H        -3.388228        -0.097710         0.168926
 H        -3.641745        -2.164368        -1.069164
 H        -1.814902        -2.267524        -1.404541
 H        -2.464262        -2.356223         0.251295
 H        -2.339952         0.265004        -2.775692
 H        -3.923197         0.442702        -2.266438
 H        -3.012092         3.741502        -1.525917
