19
Iteration:   780
 C         1.438045        -0.236178         0.665389
 C         0.096029        -0.129092         0.136496
 C        -1.113281         0.038001         0.175310
 C        -2.441864         0.075849        -0.331965
 C        -3.069196        -1.384751        -0.108082
 C        -2.599653         0.383791        -1.870612
 O        -2.271696         1.828200        -2.123342
 C        -3.271145         2.693335        -2.362058
 O        -4.352366         2.448106        -2.911384
 H         1.664684         0.374552         1.442937
 H         1.788744        -1.265947         0.852993
 H         2.199586        -0.003333        -0.229442
 H        -3.081807         0.859000         0.214446
 H        -3.311243        -1.478261         0.944800
 H        -4.035839        -1.495527        -0.641203
 H        -2.522759        -2.243906        -0.464292
 H        -1.948462        -0.251044        -2.524223
 H        -3.648002         0.328643        -2.202469
 H        -2.817287         3.699147        -2.139691
