19
Iteration:  3873charge 0 multiplicity 1
 C         1.499335        -0.788423         0.448214
 C         0.076836        -0.394182         0.553941
 C        -1.112593        -0.106078         0.385262
 C        -2.473507         0.168653        -0.193025
 C        -2.784972        -1.001899        -1.211791
 C        -2.370324         1.595239        -0.883278
 O        -3.686258         1.967057        -1.321064
 C        -3.810672         2.157662        -2.704450
 O        -3.010259         2.090395        -3.638498
 H         1.944896        -0.195135        -0.436514
 H         2.141540        -0.713870         1.255072
 H         1.762661        -1.833115         0.190172
 H        -3.237453         0.177272         0.584595
 H        -3.522072        -0.812522        -1.982064
 H        -1.710839        -1.252998        -1.518049
 H        -3.179658        -1.847314        -0.582862
 H        -2.017629         2.328380        -0.080854
 H        -1.663578         1.616165        -1.687833
 H        -4.903409         2.266158        -2.758070
