19
Iteration:   415charge 0 multiplicity 1
 C         1.388090         0.164914        -0.090551
 C        -0.059541         0.071440        -0.034270
 C        -1.242807        -0.059572        -0.175727
 C        -2.699182        -0.072398        -0.115633
 C        -3.065408        -1.543366         0.001784
 C        -3.381787         0.619783        -1.152664
 O        -2.964615         2.026594        -1.238502
 C        -2.751884         2.550238        -2.458805
 O        -2.946833         1.993997        -3.532606
 H         1.898903         0.933082         0.394341
 H         1.774291        -0.861316         0.241711
 H         1.791099         0.270629        -1.224397
 H        -2.941610         0.460024         0.757879
 H        -2.261311        -2.130982         0.504348
 H        -3.988922        -1.779600         0.561419
 H        -3.041172        -1.960956        -1.025873
 H        -3.277169         0.130839        -2.095384
 H        -4.457657         0.537242        -0.775646
 H        -2.374435         3.526742        -2.332621
