19
Iteration:  4363charge 0 multiplicity 1
 C         1.457180        -0.331523         0.984470
 C         0.022665        -0.377276         0.624166
 C        -1.153336        -0.438647         0.281335
 C        -2.470418        -0.137855        -0.433263
 C        -2.831508        -1.426590        -1.435339
 C        -2.223573         1.157375        -1.291914
 O        -3.356949         2.023829        -1.341609
 C        -3.770222         2.579688        -2.454199
 O        -3.357633         2.465008        -3.591267
 H         2.129703         0.201447         0.348663
 H         1.544980         0.200232         1.979301
 H         1.801065        -1.363854         1.225481
 H        -3.241763         0.053355         0.365670
 H        -3.807993        -1.895027        -1.282956
 H        -2.465319        -1.054619        -2.336918
 H        -2.048636        -2.080373        -1.044552
 H        -1.508770         1.830123        -0.722386
 H        -1.967835         0.927827        -2.371705
 H        -4.613909         3.285144        -2.175233
