19
Iteration:  2345charge 0 multiplicity 1
 C         1.076121         0.760276         0.280140
 C        -0.265935         0.279027        -0.090075
 C        -1.353228        -0.184035        -0.190534
 C        -2.805202        -0.383272        -0.378920
 C        -3.181904        -1.950883        -0.519048
 C        -3.208539         0.338921        -1.680087
 O        -3.348661         1.741612        -1.259120
 C        -2.593412         2.636110        -1.971604
 O        -2.091298         2.411979        -3.058447
 H         0.838713         1.772828         0.546600
 H         1.633642         0.287409         1.119493
 H         1.819780         0.692433        -0.491683
 H        -3.417676         0.014372         0.454609
 H        -2.684203        -2.459658         0.258860
 H        -4.223682        -2.194241        -0.385072
 H        -2.978727        -2.270149        -1.527136
 H        -2.389508         0.264694        -2.409406
 H        -4.219929         0.029789        -2.000923
 H        -2.549150         3.676113        -1.511658
