19
Iteration:  2529
 C         1.290431         0.309219         0.705188
 C        -0.067110         0.069043         0.169619
 C        -1.198468         0.024649        -0.411223
 C        -2.608795        -0.319138        -0.513269
 C        -2.892682        -1.862608        -0.630024
 C        -3.395877         0.397355        -1.599939
 O        -3.325860         1.821096        -1.221645
 C        -2.961641         2.736165        -2.145950
 O        -2.540229         2.531866        -3.272527
 H         1.951353        -0.506072         0.388448
 H         1.678447         1.328969         0.629420
 H         1.280563         0.095431         1.832468
 H        -3.090979        -0.045086         0.425167
 H        -3.827980        -2.045269        -0.120837
 H        -2.924804        -2.130428        -1.730679
 H        -1.984611        -2.425525        -0.400339
 H        -2.958465         0.279654        -2.589177
 H        -4.447892         0.097475        -1.478916
 H        -3.015948         3.685402        -1.582458
