19
Iteration:  4622charge 0 multiplicity 1
 C         1.482046        -0.906937         0.853529
 C         0.133767        -0.411964         0.600154
 C        -0.981579        -0.007586         0.272422
 C        -2.358437         0.244366        -0.166040
 C        -2.739563        -1.190608        -0.755614
 C        -2.337309         1.265027        -1.352336
 O        -3.528717         1.178187        -2.247373
 C        -3.864411         2.219197        -2.945583
 O        -3.402356         3.347900        -2.866004
 H         1.383990        -1.396055         1.902624
 H         1.805812        -1.826049         0.245855
 H         2.191740        -0.128206         0.969017
 H        -2.850130         0.555072         0.796660
 H        -3.837030        -1.354109        -1.028001
 H        -2.295696        -1.491849        -1.764790
 H        -2.455939        -2.103482        -0.127395
 H        -2.327405         2.337526        -1.074178
 H        -1.570447         0.906831        -2.011419
 H        -4.406139         1.793054        -3.813763
