19
Iteration:  2673
 C         1.044415         0.496305         0.236150
 C        -0.399120         0.071446         0.290754
 C        -1.576480        -0.260230         0.276764
 C        -2.842526        -0.486055        -0.465879
 C        -2.857376        -1.992466        -0.810170
 C        -2.748514         0.424480        -1.637516
 O        -2.681435         1.818066        -1.152612
 C        -2.668195         2.799145        -2.152604
 O        -3.111843         2.726301        -3.282818
 H         1.360087         0.487211         1.309647
 H         1.512742        -0.245919        -0.392041
 H         1.212568         1.633374        -0.074133
 H        -3.634300        -0.140832         0.249920
 H        -3.915284        -2.389148        -1.061501
 H        -2.088695        -2.273197        -1.630700
 H        -2.445619        -2.555590         0.133999
 H        -1.852843         0.204491        -2.216962
 H        -3.698405         0.435688        -2.252512
 H        -2.400395         3.739590        -1.568517
