19
Iteration:  3262charge 0 multiplicity 1
 C         1.012412         0.603652         0.861687
 C        -0.109566        -0.123980         0.289363
 C        -1.217432        -0.300418        -0.108046
 C        -2.619042        -0.435700        -0.598949
 C        -3.195089        -1.803919        -0.866716
 C        -2.716951         0.354778        -1.936635
 O        -2.250699         1.771335        -1.437233
 C        -2.875188         2.840643        -2.056081
 O        -3.623011         2.630328        -2.990747
 H         0.531025         1.487759         1.314892
 H         1.304484        -0.085516         1.785868
 H         1.837817         0.904455         0.224651
 H        -3.225791         0.169231         0.047860
 H        -4.301960        -1.709036        -1.153465
 H        -2.832066        -2.462500        -1.668231
 H        -3.355224        -2.428795         0.075660
 H        -1.896338         0.170265        -2.705256
 H        -3.754396         0.381337        -2.251703
 H        -2.876828         3.751418        -1.469670
