19
Iteration:  2456
 C         1.266047         0.080444         0.507725
 C        -0.119539         0.179858         0.126109
 C        -1.362559         0.318159        -0.020164
 C        -2.636569        -0.229499        -0.389607
 C        -2.669283        -1.728504        -0.851643
 C        -3.373171         0.436062        -1.527111
 O        -3.598694         1.852928        -1.257818
 C        -2.936364         2.665509        -2.219141
 O        -2.316396         2.266658        -3.182751
 H         2.039393         0.091014        -0.267698
 H         1.239995         0.815720         1.433560
 H         1.610910        -0.887342         0.930297
 H        -3.328519        -0.049702         0.481687
 H        -2.818032        -2.349286         0.030137
 H        -3.414224        -1.967766        -1.586099
 H        -1.766812        -1.871906        -1.454061
 H        -2.907931         0.258350        -2.479850
 H        -4.400862        -0.036560        -1.476432
 H        -2.848650         3.659174        -1.706137
