19
Iteration:   341charge 0 multiplicity 1
 C         1.334194         0.275019        -0.336894
 C        -0.143052         0.370832        -0.386329
 C        -1.271367        -0.044755        -0.224271
 C        -2.735327        -0.135314        -0.006860
 C        -3.257464        -1.589997         0.078849
 C        -3.417149         0.612395        -1.139410
 O        -3.137849         2.012443        -1.157137
 C        -2.676599         2.484022        -2.379064
 O        -2.451053         1.821415        -3.359635
 H         1.746708        -0.100394         0.712044
 H         1.672973        -0.545678        -0.970835
 H         1.908606         1.112456        -0.561938
 H        -2.965918         0.407161         0.980264
 H        -2.823929        -2.040160         0.983621
 H        -4.305945        -1.752330         0.214219
 H        -2.792457        -2.177137        -0.718693
 H        -3.159112         0.150378        -2.097441
 H        -4.485073         0.514769        -0.959425
 H        -2.572500         3.647030        -2.226768
