19
Iteration:  2104charge 0 multiplicity 1
 C         1.151975         0.847897         0.023178
 C        -0.266244         0.449770        -0.060968
 C        -1.406463         0.033049        -0.307049
 C        -2.796856        -0.314514        -0.417921
 C        -2.880534        -1.822554        -0.753144
 C        -3.726684         0.417392        -1.423479
 O        -3.543415         1.902122        -1.282176
 C        -2.508815         2.438262        -1.894455
 O        -1.825972         1.825258        -2.711877
 H         1.766745         0.250139        -0.720240
 H         1.196285         1.963971        -0.266093
 H         1.624133         0.601479         0.921453
 H        -3.146302        -0.134266         0.597104
 H        -2.124536        -2.027199        -1.561948
 H        -2.747945        -2.505580         0.101332
 H        -3.803045        -2.011488        -1.333361
 H        -3.348934         0.215485        -2.467891
 H        -4.784574         0.152521        -1.264524
 H        -2.713021         3.482473        -1.706694
