19
Iteration:   667charge 0 multiplicity 1
 C         1.582064        -0.117757         0.678704
 C         0.214417        -0.269998         0.045387
 C        -0.993075        -0.114176         0.078456
 C        -2.411063         0.003842        -0.201415
 C        -3.143469        -1.379189        -0.189560
 C        -2.950912         0.547246        -1.527192
 O        -2.446805         1.905305        -1.827233
 C        -3.171110         2.637493        -2.640780
 O        -4.214131         2.418526        -3.205301
 H         1.941337        -1.144388         1.016769
 H         2.341872         0.058443        -0.076442
 H         1.542208         0.583046         1.583896
 H        -2.781293         0.761394         0.587912
 H        -2.969233        -1.867564         0.776189
 H        -4.134575        -1.458602        -0.588133
 H        -2.469104        -1.854645        -0.935472
 H        -2.857067        -0.107895        -2.376184
 H        -4.010197         0.642027        -1.331832
 H        -2.778653         3.747874        -2.712219
