19
Iteration:  1151
 C         0.939398         0.789364         0.511818
 C        -0.362265         0.342879         0.261779
 C        -1.363824        -0.099486        -0.295058
 C        -2.721371        -0.245008        -0.798056
 C        -3.263588        -1.711696        -0.523220
 C        -2.771886         0.142578        -2.256305
 O        -2.034585         1.376943        -2.499043
 C        -2.621820         2.478454        -2.038070
 O        -3.562763         2.612708        -1.294018
 H         0.910300         1.881217         1.013039
 H         1.262993         0.135883         1.434258
 H         1.722872         0.632944        -0.224562
 H        -3.274682         0.539408        -0.275886
 H        -2.664053        -2.107230         0.334024
 H        -4.374628        -1.689414        -0.261543
 H        -3.298954        -2.449087        -1.382691
 H        -2.169291        -0.512798        -2.900764
 H        -3.798887         0.236221        -2.663557
 H        -1.975031         3.354299        -2.349745
