19
Iteration:  2292
 C         0.874172         1.052180         0.111374
 C        -0.260118         0.231494        -0.039930
 C        -1.355228        -0.330845        -0.315390
 C        -2.810730        -0.509193        -0.422094
 C        -3.306286        -1.893142        -0.442797
 C        -3.366328         0.311916        -1.628545
 O        -3.122588         1.673685        -1.257182
 C        -2.553265         2.579589        -1.935496
 O        -1.903408         2.465405        -2.944748
 H         0.953203         1.788402         0.912815
 H         1.808500         0.347496         0.205072
 H         1.121075         1.787164        -0.665052
 H        -3.235639        -0.076122         0.523397
 H        -3.776043        -2.243981         0.462431
 H        -3.993771        -2.040024        -1.314459
 H        -2.477902        -2.659148        -0.654082
 H        -2.876595        -0.033287        -2.556723
 H        -4.489929         0.193072        -1.721330
 H        -2.463800         3.625390        -1.511229
