19
Iteration:  2106charge 0 multiplicity 1
 C         1.147591         0.841590         0.001945
 C        -0.276364         0.445698        -0.065789
 C        -1.411400         0.048359        -0.301704
 C        -2.790229        -0.311042        -0.415671
 C        -2.870402        -1.818530        -0.764644
 C        -3.740098         0.420491        -1.433592
 O        -3.543888         1.894390        -1.263679
 C        -2.508435         2.423883        -1.906148
 O        -1.808350         1.822389        -2.705261
 H         1.753155         0.230582        -0.696138
 H         1.192726         1.951157        -0.209907
 H         1.586757         0.690633         0.984109
 H        -3.142359        -0.149518         0.591933
 H        -2.132402        -2.010672        -1.578289
 H        -2.724233        -2.472591         0.127089
 H        -3.851875        -2.040731        -1.279933
 H        -3.357094         0.203191        -2.464687
 H        -4.773328         0.156582        -1.256639
 H        -2.717489         3.583490        -1.700167
