19
Iteration:  2178charge 0 multiplicity 1
 C         0.957075         0.874442        -0.236171
 C        -0.395125         0.542897        -0.042674
 C        -1.514845         0.039838         0.012031
 C        -2.901590        -0.422023        -0.332327
 C        -2.842565        -1.910543        -0.867774
 C        -3.653750         0.447132        -1.476933
 O        -3.481770         1.855867        -1.249829
 C        -2.343430         2.433396        -1.855060
 O        -1.653839         1.925807        -2.742796
 H         1.570243         0.084382         0.246182
 H         1.154297         1.124813        -1.292092
 H         1.114517         1.885885         0.331628
 H        -3.519017        -0.465107         0.607973
 H        -3.535891        -2.140257        -1.709138
 H        -1.833972        -2.240995        -1.025573
 H        -3.168734        -2.493848        -0.030240
 H        -3.264884         0.193262        -2.484433
 H        -4.729226         0.206441        -1.373278
 H        -2.473937         3.497354        -1.410764
