19
Iteration:  1112charge 0 multiplicity 1
 C         1.091507         0.626325         0.734146
 C        -0.252595         0.272705         0.166011
 C        -1.339594         0.009979        -0.250775
 C        -2.662189        -0.151370        -0.781130
 C        -3.241421        -1.596093        -0.478692
 C        -2.822007         0.187972        -2.336508
 O        -2.160339         1.393527        -2.654598
 C        -2.689240         2.506339        -2.043158
 O        -3.650138         2.491203        -1.331977
 H         0.897667         1.206554         1.573947
 H         1.628585        -0.202535         1.140809
 H         1.735777         1.298045         0.093814
 H        -3.382871         0.416500        -0.166448
 H        -3.461363        -1.525839         0.570782
 H        -4.141133        -1.804811        -1.029370
 H        -2.439503        -2.326351        -0.462821
 H        -2.348380        -0.680961        -2.824334
 H        -3.893946         0.164053        -2.613387
 H        -1.847965         3.250306        -2.240447
