19
Iteration:  3450
 C         1.253574        -0.197728         1.136179
 C        -0.100431        -0.174899         0.688393
 C        -1.129942        -0.025653         0.063542
 C        -2.472167        -0.312074        -0.483254
 C        -2.747727        -1.652516        -1.002203
 C        -2.820107         0.564206        -1.858396
 O        -2.530416         1.957234        -1.638935
 C        -3.201648         2.859780        -2.302532
 O        -3.924194         2.634341        -3.272203
 H         1.930133        -0.629752         0.421763
 H         1.741771         0.820057         1.350130
 H         1.410502        -0.890065         1.949663
 H        -3.158511         0.019551         0.303160
 H        -3.859430        -1.544342        -1.168173
 H        -2.172049        -1.755834        -1.964950
 H        -2.629873        -2.392645        -0.187954
 H        -1.935736         0.216767        -2.490703
 H        -3.796999         0.397645        -2.262513
 H        -2.864964         3.803776        -1.910616
