19
Iteration:  3229charge 0 multiplicity 1
 C         1.081109         0.563732         0.767851
 C        -0.224184         0.080594         0.407052
 C        -1.214140        -0.472956        -0.019683
 C        -2.619087        -0.467832        -0.501807
 C        -3.230780        -1.801031        -1.081616
 C        -2.704585         0.474597        -1.691463
 O        -2.190362         1.820692        -1.381399
 C        -2.872697         2.772654        -2.188690
 O        -3.698075         2.576572        -3.069723
 H         1.141205         1.178723         1.650513
 H         1.614939        -0.311776         1.347238
 H         1.751944         1.055245         0.080661
 H        -3.336987        -0.058255         0.200389
 H        -4.078646        -1.434575        -1.730950
 H        -2.487688        -2.416110        -1.634776
 H        -3.582306        -2.414586        -0.204107
 H        -2.114475         0.105424        -2.604331
 H        -3.716532         0.627525        -2.104681
 H        -2.770185         3.741641        -1.707254
