19
Iteration:   284
 C         1.200370         0.484213        -0.642821
 C        -0.131204         0.035721        -0.312081
 C        -1.327479        -0.104187        -0.084564
 C        -2.765871        -0.043383         0.102234
 C        -3.167795        -1.539429         0.188136
 C        -3.627658         0.529528        -1.220183
 O        -3.376006         2.014757        -1.283277
 C        -2.436798         2.491855        -2.285900
 O        -2.118933         1.827686        -3.236331
 H         2.098995        -0.206921        -0.351386
 H         1.186395         0.534588        -1.784443
 H         1.455134         1.520823        -0.335303
 H        -2.954950         0.579566         1.022247
 H        -3.041728        -2.004948         1.150045
 H        -4.180351        -1.691413        -0.212450
 H        -2.594453        -2.119715        -0.551556
 H        -3.234485         0.014597        -2.035197
 H        -4.685018         0.252547        -1.105303
 H        -2.249178         3.605412        -2.050527
