19
Iteration:  3570charge 0 multiplicity 1
 C         1.453352        -0.329527         1.210271
 C         0.087239        -0.325138         0.634428
 C        -0.873089        -0.366786        -0.061686
 C        -2.212781        -0.154382        -0.550617
 C        -3.091790        -1.463367        -0.933443
 C        -2.459043         0.856956        -1.806780
 O        -3.096585         2.046184        -1.321150
 C        -3.657878         2.730038        -2.355799
 O        -3.651900         2.562946        -3.554250
 H         1.767316        -1.259865         1.700754
 H         2.108689        -0.122778         0.271283
 H         1.452298         0.509870         1.905243
 H        -2.712718         0.355804         0.328906
 H        -4.129025        -1.166727        -0.758005
 H        -2.810154        -1.663532        -1.996471
 H        -2.928985        -2.316152        -0.285117
 H        -1.509964         1.110320        -2.285683
 H        -3.060866         0.287034        -2.392921
 H        -4.381507         3.382873        -1.760021
