19
Iteration:  1739charge 0 multiplicity 1
 C         1.501512        -0.165875         0.902885
 C         0.066906        -0.000167         0.462524
 C        -1.035849        -0.036989        -0.068348
 C        -2.466063        -0.161603        -0.457105
 C        -2.930833        -1.786291        -0.394711
 C        -2.807829         0.522395        -1.791653
 O        -2.656300         2.029387        -1.596279
 C        -3.274091         2.861539        -2.456133
 O        -3.995160         2.441060        -3.364604
 H         1.759955        -1.231261         0.663330
 H         2.091166         0.668131         0.465057
 H         1.471081        -0.071576         2.054912
 H        -2.973330         0.485092         0.238022
 H        -3.971071        -1.960386         0.020254
 H        -2.710206        -2.025211        -1.442497
 H        -2.219403        -2.195812         0.366014
 H        -1.989505         0.174988        -2.491979
 H        -3.798876         0.193957        -2.152928
 H        -3.113881         3.881637        -2.363220
