19
Iteration:  2723
 C         1.167441         0.436160         0.706213
 C        -0.161653         0.067442         0.313990
 C        -1.337715        -0.163953        -0.039147
 C        -2.749039        -0.464692        -0.441214
 C        -2.933542        -1.921510        -0.973289
 C        -3.239205         0.495203        -1.589368
 O        -2.498138         1.766882        -1.231818
 C        -2.739210         2.746900        -2.188681
 O        -3.244378         2.634056        -3.296758
 H         1.231905         1.225153         1.455493
 H         1.718157        -0.555857         0.618008
 H         1.330455         1.091537        -0.083479
 H        -3.291064        -0.241025         0.494044
 H        -3.935622        -2.017343        -1.294030
 H        -2.247572        -2.023795        -1.813810
 H        -2.726660        -2.651185        -0.191592
 H        -2.937194         0.283043        -2.636548
 H        -4.301581         0.736490        -1.455612
 H        -2.250609         3.622232        -1.724526
