19
Iteration:  1675
 C         1.431154        -0.058672         0.838839
 C         0.059065        -0.189229         0.451999
 C        -1.099199        -0.043738         0.077013
 C        -2.463530        -0.063255        -0.457731
 C        -3.119226        -1.525826        -0.502989
 C        -2.512638         0.546150        -1.864697
 O        -2.375115         1.974121        -1.713025
 C        -3.341493         2.735064        -2.396304
 O        -4.218608         2.301491        -3.142752
 H         2.142048        -0.275634        -0.017390
 H         1.837275         0.895813         1.232169
 H         1.651343        -0.690320         1.663893
 H        -3.005971         0.629387         0.264641
 H        -3.015349        -1.980017        -1.521723
 H        -2.472857        -2.199041         0.046595
 H        -4.176242        -1.760071        -0.269713
 H        -1.721670         0.169009        -2.511152
 H        -3.443785         0.391688        -2.391973
 H        -2.978285         3.835678        -2.195131
