19
Iteration:  3578
 C         1.398975        -0.321950         1.114750
 C         0.106806        -0.373441         0.704610
 C        -0.860881        -0.310657        -0.081902
 C        -2.270268        -0.177616        -0.536284
 C        -3.056120        -1.449122        -0.930966
 C        -2.344411         0.835629        -1.723173
 O        -3.138013         2.066363        -1.344899
 C        -3.754854         2.757547        -2.362874
 O        -3.614824         2.544191        -3.550509
 H         1.655784        -1.308686         1.696358
 H         2.201755        -0.290397         0.440614
 H         1.661564         0.484472         1.778345
 H        -2.794932         0.333816         0.295974
 H        -4.129422        -1.282857        -0.769669
 H        -2.880262        -1.724538        -1.944668
 H        -2.738695        -2.302486        -0.376115
 H        -1.393671         0.995094        -2.264531
 H        -3.077613         0.391323        -2.428221
 H        -4.321417         3.648409        -1.951971
