19
Iteration:  1022
 C         1.188924         0.190668         0.868927
 C        -0.184457         0.090138         0.464785
 C        -1.162314         0.015414        -0.220866
 C        -2.605633        -0.066018        -0.689365
 C        -2.955129        -1.618953        -0.333512
 C        -2.722513         0.209097        -2.155940
 O        -2.299849         1.519957        -2.732166
 C        -3.003343         2.690701        -2.404975
 O        -3.909685         2.704158        -1.614338
 H         1.472664        -0.734003         1.293655
 H         1.642611         0.113291        -0.156149
 H         1.543794         1.105582         1.430154
 H        -3.047875         0.733929        -0.057855
 H        -3.728751        -1.762407         0.437282
 H        -3.335710        -2.268072        -1.121460
 H        -2.049047        -1.969866         0.159083
 H        -2.245013        -0.478867        -2.912562
 H        -3.845316         0.185134        -2.409588
 H        -2.939470         3.591835        -3.093091
