19
Iteration:  2626
 C         1.138376         0.526586         0.199346
 C        -0.307741         0.094100         0.389233
 C        -1.419710        -0.259180         0.232243
 C        -2.764371        -0.462080        -0.457609
 C        -3.042653        -1.936382        -0.799525
 C        -2.784121         0.406871        -1.681166
 O        -2.793415         1.746381        -1.184466
 C        -3.025929         2.704647        -2.080206
 O        -2.800253         2.742322        -3.285172
 H         1.871478         0.066698         0.884768
 H         1.335711         0.408762        -0.961293
 H         1.170595         1.605870         0.516785
 H        -3.588743        -0.032758         0.210963
 H        -3.755265        -1.876256        -1.627364
 H        -1.995326        -2.420584        -0.974178
 H        -3.506546        -2.360387         0.163218
 H        -1.863798         0.249037        -2.282345
 H        -3.748543         0.273881        -2.259956
 H        -3.151252         3.603583        -1.402775
