19
Iteration:   950
 C         1.315579         0.022204         0.900040
 C        -0.022727         0.142821         0.261116
 C        -1.086924         0.024534        -0.286544
 C        -2.479640        -0.006202        -0.645610
 C        -3.212808        -1.479804        -0.255738
 C        -2.692822         0.278766        -2.056775
 O        -2.150572         1.630095        -2.441053
 C        -3.051137         2.668009        -2.354639
 O        -4.215639         2.496885        -2.018061
 H         1.806795        -0.771621         0.320295
 H         1.971743         0.880054         0.946207
 H         1.162821        -0.362624         1.844738
 H        -2.923493         0.708097         0.058581
 H        -3.514027        -1.596631         0.795498
 H        -4.117390        -1.688672        -0.869914
 H        -2.462598        -2.314556        -0.326628
 H        -2.193641        -0.341000        -2.790841
 H        -3.724775         0.250525        -2.301126
 H        -2.600434         3.635173        -2.710646
