19
Iteration:  3684charge 0 multiplicity 1
 C         1.556323        -0.813007         0.787833
 C         0.137555        -0.394003         0.755711
 C        -0.964449        -0.168631         0.276758
 C        -2.267758         0.121512        -0.424680
 C        -2.851897        -1.264124        -1.058953
 C        -2.240284         1.395642        -1.383152
 O        -3.605743         1.939959        -1.413532
 C        -4.002143         2.459155        -2.565456
 O        -3.313428         2.367795        -3.535270
 H         1.901480        -0.728409         1.773345
 H         1.597743        -1.874033         0.410173
 H         2.325920        -0.152337         0.242746
 H        -2.925640         0.406941         0.393910
 H        -3.513943        -1.058993        -1.992972
 H        -2.091499        -1.925577        -1.459330
 H        -3.622992        -1.690515        -0.377740
 H        -1.625397         2.229271        -1.126007
 H        -2.049780         1.051241        -2.463685
 H        -4.937298         3.010733        -2.506469
