19
Iteration:  2269
 C         0.846390         1.089472         0.048282
 C        -0.323918         0.219929        -0.188559
 C        -1.438006        -0.211340        -0.210500
 C        -2.858703        -0.587267        -0.322177
 C        -3.294686        -2.039231        -0.499254
 C        -3.326287         0.299573        -1.512648
 O        -3.198840         1.751248        -1.196457
 C        -2.415533         2.580245        -1.955703
 O        -1.788653         2.465292        -2.990879
 H         0.996974         1.509418         1.085141
 H         1.778369         0.507438        -0.344136
 H         0.849177         2.008353        -0.526797
 H        -3.424246        -0.129147         0.531579
 H        -3.940190        -2.446829         0.273295
 H        -3.689574        -2.202965        -1.524905
 H        -2.388397        -2.700771        -0.536084
 H        -2.749189         0.141287        -2.471107
 H        -4.419663         0.157007        -1.682792
 H        -2.662569         3.695615        -1.740128
