19
Iteration:   825charge 0 multiplicity 1
 C         1.473400        -0.130766         0.605043
 C         0.014164        -0.094178         0.444445
 C        -1.042477        -0.076826        -0.174300
 C        -2.494768        -0.025864        -0.390527
 C        -3.260314        -1.330410        -0.187586
 C        -2.559934         0.477722        -1.850843
 O        -2.162166         1.896486        -2.025399
 C        -3.208681         2.636029        -2.595477
 O        -4.363555         2.335291        -2.568578
 H         1.692201         0.868260         0.626856
 H         1.851979        -0.611212         1.520938
 H         2.011779        -0.713960        -0.244806
 H        -2.970317         0.746658         0.304787
 H        -3.611850        -1.515959         0.829865
 H        -4.110323        -1.423534        -0.886138
 H        -2.683847        -2.177593        -0.546251
 H        -1.719374         0.009570        -2.432565
 H        -3.529501         0.319031        -2.402121
 H        -2.803477         3.553106        -3.106278
