19
Iteration:  4487charge 0 multiplicity 1
 C         1.433386        -0.433516         1.107906
 C         0.178324        -0.341755         0.435860
 C        -0.900893        -0.284121        -0.176622
 C        -2.334266        -0.106254        -0.438088
 C        -2.950633        -1.364295        -1.028240
 C        -2.334969         1.242260        -1.226390
 O        -3.781237         1.620751        -1.583146
 C        -3.931724         2.461281        -2.622460
 O        -2.968199         2.794890        -3.278211
 H         1.893039        -1.409195         0.841122
 H         2.164468         0.278117         0.831783
 H         1.218154        -0.421331         2.215107
 H        -2.743838         0.069124         0.588073
 H        -3.530506        -1.049506        -1.879761
 H        -2.101613        -1.968311        -1.309416
 H        -3.491808        -1.790829        -0.208948
 H        -1.933289         2.032384        -0.580772
 H        -1.634474         1.101347        -2.109683
 H        -4.995816         2.655654        -2.876649
