19
Iteration:    26
 C         1.260717         0.429128        -0.550176
 C        -0.176245         0.181513        -0.176848
 C        -1.360202         0.002917        -0.127928
 C        -2.806161        -0.052551         0.065721
 C        -3.028449        -1.581431         0.279481
 C        -3.537693         0.563846        -1.198890
 O        -3.414774         2.056000        -1.380803
 C        -2.510338         2.368991        -2.317163
 O        -2.192950         1.808546        -3.366912
 H         1.587599         1.326727        -0.279011
 H         1.893819        -0.474663        -0.010696
 H         1.400549         0.024412        -1.675496
 H        -3.112785         0.500063         0.930439
 H        -2.169726        -1.956357         0.872634
 H        -3.998177        -1.739522         0.838030
 H        -3.126054        -2.174348        -0.672674
 H        -3.230987         0.051879        -2.111925
 H        -4.671573         0.415546        -1.148402
 H        -2.150563         3.467666        -2.109233
