19
Iteration:  4822charge 0 multiplicity 1
 C         1.244525        -0.459723         1.119330
 C         0.060295         0.105903         0.359874
 C        -1.086938         0.160582        -0.010404
 C        -2.414962         0.197850        -0.644449
 C        -3.052595        -1.204480        -0.601506
 C        -2.173432         0.547847        -2.105199
 O        -3.410573         1.013789        -2.779103
 C        -3.650948         2.393327        -2.502280
 O        -3.116251         3.054612        -1.678196
 H         2.098067         0.139140         1.049035
 H         0.936673        -0.500025         2.201943
 H         1.498619        -1.482994         0.832899
 H        -3.129641         0.929302        -0.120839
 H        -4.065737        -1.235457        -1.008432
 H        -2.400486        -2.002838        -1.111189
 H        -3.290544        -1.373244         0.461700
 H        -1.449548         1.294646        -2.137615
 H        -1.672110        -0.261391        -2.630191
 H        -4.434790         2.737339        -3.237655
