19
Iteration:  4656
 C         1.457936        -0.820693         0.993717
 C         0.175577        -0.512768         0.446108
 C        -0.859885        -0.050315         0.147261
 C        -2.192055         0.173425        -0.303436
 C        -2.971753        -1.337354        -0.589354
 C        -2.344679         1.329219        -1.381913
 O        -3.434721         1.155239        -2.362646
 C        -3.883485         2.252004        -2.936823
 O        -3.474822         3.397174        -2.759587
 H         1.310373        -0.767358         2.115781
 H         1.884229        -1.868725         0.799770
 H         2.239894        -0.093907         0.758886
 H        -2.827487         0.571444         0.518885
 H        -3.815359        -1.018704        -1.308979
 H        -2.237139        -2.037747        -0.988227
 H        -3.405094        -1.579678         0.413868
 H        -2.468282         2.261885        -0.885381
 H        -1.395279         1.510301        -1.857158
 H        -4.550580         2.018130        -3.771597
