19
Iteration:  3711
 C         1.551391        -0.866562         0.841616
 C         0.160679        -0.515214         0.561425
 C        -0.926838        -0.131779         0.160087
 C        -2.247982         0.166164        -0.317338
 C        -2.880429        -0.974017        -1.048187
 C        -2.263357         1.426691        -1.145811
 O        -3.603871         1.793955        -1.435182
 C        -3.993587         2.295300        -2.635244
 O        -3.317280         2.422539        -3.634409
 H         1.642240        -0.364409         1.894138
 H         1.594035        -1.960768         0.901254
 H         2.186311        -0.421369         0.108882
 H        -2.799742         0.374614         0.632093
 H        -3.723033        -0.624799        -1.629621
 H        -2.103067        -1.467287        -1.667596
 H        -3.373536        -1.700528        -0.411133
 H        -1.809663         2.353685        -0.616565
 H        -1.817625         1.283697        -2.114050
 H        -5.093511         2.480993        -2.625570
