19
Iteration:   324
 C         1.368801         0.306925        -0.448632
 C        -0.122480         0.248490        -0.367260
 C        -1.310020         0.117122        -0.244165
 C        -2.776427        -0.146085        -0.007305
 C        -3.260390        -1.648965         0.154237
 C        -3.538121         0.509263        -1.182064
 O        -3.066477         2.044156        -1.142447
 C        -2.724861         2.490276        -2.366080
 O        -2.313971         1.796060        -3.249620
 H         1.693658        -0.023686         0.490656
 H         1.799430        -0.148612        -1.358833
 H         1.678677         1.429800        -0.442169
 H        -3.079276         0.360462         0.885866
 H        -3.278023        -2.045728         1.184959
 H        -4.329644        -1.430792        -0.121482
 H        -2.773222        -2.311183        -0.585178
 H        -3.076450         0.224382        -2.174476
 H        -4.627281         0.661570        -1.253219
 H        -2.749088         3.533098        -2.448710
