19
Iteration:  1786
 C         1.442048        -0.109391         0.931476
 C         0.119029        -0.054606         0.277599
 C        -1.052902         0.017062        -0.078146
 C        -2.542281        -0.152834        -0.319817
 C        -2.783430        -1.631306        -0.543300
 C        -3.057118         0.551890        -1.715720
 O        -2.783532         1.939882        -1.472749
 C        -3.186788         2.792857        -2.462141
 O        -3.736501         2.375589        -3.421255
 H         1.436147        -1.156831         1.378540
 H         2.161735         0.162167         0.095699
 H         1.511713         0.618073         1.695524
 H        -3.126702         0.156628         0.585660
 H        -2.684332        -2.178029         0.440084
 H        -3.782148        -1.659051        -0.990930
 H        -1.937616        -2.043207        -1.088355
 H        -2.661876         0.059510        -2.565552
 H        -4.143764         0.443783        -1.743827
 H        -2.940742         3.823719        -2.230413
