19
Iteration:  3410charge 0 multiplicity 1
 C         1.184084        -0.081300         1.032736
 C        -0.175584        -0.040132         0.507316
 C        -1.321688        -0.122622         0.194144
 C        -2.560116        -0.387361        -0.574801
 C        -2.639618        -1.841211        -1.005011
 C        -2.886557         0.656887        -1.687551
 O        -2.347466         2.059226        -1.568352
 C        -2.938057         2.876829        -2.520685
 O        -3.999142         2.592947        -3.073881
 H         2.002850        -0.081428         0.304236
 H         1.344777         0.575889         1.915093
 H         1.094415        -1.056132         1.598070
 H        -3.381585        -0.474996         0.149120
 H        -3.617989        -2.220633        -1.252695
 H        -1.999434        -2.094739        -1.868982
 H        -2.342599        -2.554156        -0.232773
 H        -2.350883         0.379709        -2.589729
 H        -4.019554         0.800894        -1.920891
 H        -2.360463         3.809132        -2.807885
