19
Iteration:  4896
 C         1.185682         0.040066         1.218992
 C        -0.061801        -0.111953         0.479768
 C        -1.001967        -0.254724        -0.254369
 C        -2.293344         0.051735        -0.896364
 C        -3.257958        -1.048421        -0.565838
 C        -2.152047         0.489896        -2.330630
 O        -3.438242         1.132345        -2.791092
 C        -3.657274         2.359581        -2.228572
 O        -2.927786         2.928244        -1.498212
 H         1.840070         0.169868         0.336425
 H         1.236446         0.958087         1.911567
 H         1.497551        -0.805221         1.797996
 H        -2.740026         0.946337        -0.395654
 H        -4.302078        -0.939366        -1.005369
 H        -2.816021        -1.993817        -0.828275
 H        -3.456005        -0.994657         0.507400
 H        -1.327418         1.139495        -2.623404
 H        -2.007865        -0.423564        -2.937994
 H        -4.424497         2.874775        -2.837261
