19
Iteration:  1629charge 0 multiplicity 1
 C         1.463064        -0.063424         0.810478
 C         0.023596         0.027858         0.497870
 C        -1.123738        -0.113867         0.035391
 C        -2.517869        -0.051792        -0.490584
 C        -3.226663        -1.542518        -0.556463
 C        -2.385737         0.499609        -1.897195
 O        -2.232635         2.023534        -1.849240
 C        -3.263016         2.658332        -2.432939
 O        -4.334976         2.255025        -2.842620
 H         2.102091         0.436652         0.071974
 H         1.629897         0.506489         1.715098
 H         1.837728        -1.093769         1.138981
 H        -3.148838         0.628384         0.110661
 H        -2.610761        -2.416269        -0.458840
 H        -4.102954        -1.751228         0.083315
 H        -3.719712        -1.700758        -1.583706
 H        -1.535675         0.169291        -2.552978
 H        -3.336509         0.301256        -2.426727
 H        -2.897972         3.726372        -2.259682
