19
Iteration:  2102
 C         1.153972         0.857291         0.037778
 C        -0.258151         0.451273        -0.056735
 C        -1.392686         0.021433        -0.312388
 C        -2.806184        -0.321837        -0.419767
 C        -2.891733        -1.827632        -0.745288
 C        -3.704349         0.417198        -1.414526
 O        -3.548141         1.906033        -1.298720
 C        -2.510294         2.449163        -1.889417
 O        -1.845018         1.831939        -2.717592
 H         1.756289         0.299227        -0.739270
 H         1.215089         1.922652        -0.306075
 H         1.685780         0.505045         0.926211
 H        -3.180934        -0.117504         0.617693
 H        -2.119964        -2.047253        -1.509107
 H        -2.778018        -2.535707         0.062606
 H        -3.759057        -1.990465        -1.367116
 H        -3.364410         0.223053        -2.443606
 H        -4.787485         0.163924        -1.272778
 H        -2.659467         3.425164        -1.715232
