19
Iteration:  3806charge 0 multiplicity 1
 C         1.444488        -1.002006         0.810922
 C         0.247983        -0.377144         0.352008
 C        -0.819237         0.039878        -0.034238
 C        -2.241404         0.245237        -0.270363
 C        -2.946895        -0.914334        -0.991227
 C        -2.418972         1.626637        -0.927488
 O        -3.890259         1.745144        -1.463314
 C        -3.942122         2.151063        -2.749645
 O        -2.946748         2.218606        -3.436256
 H         2.243479        -0.225079         0.917226
 H         1.273378        -1.571891         1.721212
 H         1.793883        -1.767766         0.032557
 H        -2.666588         0.308722         0.737690
 H        -3.865056        -1.328508        -0.517842
 H        -3.096688        -0.565517        -2.020983
 H        -2.428446        -1.816289        -1.267439
 H        -2.298583         2.470696        -0.197726
 H        -1.732995         1.733067        -1.775885
 H        -4.949594         2.334261        -3.155833
