19
Iteration:    48charge 0 multiplicity 1
 C         1.207323         0.410605        -0.634287
 C        -0.157436         0.197077        -0.293043
 C        -1.380210         0.260215        -0.100815
 C        -2.790523        -0.066140        -0.007190
 C        -3.120579        -1.580531         0.284681
 C        -3.665214         0.445522        -1.173659
 O        -3.373608         1.926351        -1.337124
 C        -2.467121         2.441372        -2.299672
 O        -2.023611         1.775461        -3.253144
 H         1.293917         1.406784        -0.681214
 H         2.076291        -0.035460         0.100987
 H         1.485254        -0.118693        -1.699618
 H        -3.128243         0.529506         0.818133
 H        -2.246172        -2.037074         0.791793
 H        -4.056182        -1.722143         0.897025
 H        -3.303262        -2.143775        -0.670924
 H        -3.565714        -0.111811        -2.108646
 H        -4.782717         0.400186        -0.943275
 H        -2.125873         3.524957        -2.008232
