19
Iteration:  3759charge 0 multiplicity 1
 C         1.490662        -0.916541         0.987394
 C         0.280910        -0.524889         0.276877
 C        -0.856697        -0.209168         0.018555
 C        -2.173234         0.256578        -0.250696
 C        -3.022702        -0.839948        -1.041714
 C        -2.330947         1.697457        -0.981229
 O        -3.706431         1.771588        -1.422497
 C        -3.952065         1.939416        -2.786099
 O        -3.194754         2.469616        -3.557932
 H         1.864572        -0.165223         1.653910
 H         1.243351        -1.969629         1.457794
 H         2.235986        -1.131242         0.081721
 H        -2.609603         0.299267         0.809052
 H        -3.911227        -0.932923        -0.380781
 H        -3.219972        -0.742024        -2.106022
 H        -2.658998        -1.897176        -0.920282
 H        -2.338488         2.510057        -0.363415
 H        -1.601644         1.813333        -1.805703
 H        -5.048091         1.749498        -3.064447
