19
Iteration:  4375charge 0 multiplicity 1
 C         1.413108        -0.257244         1.008589
 C        -0.015843        -0.457867         0.610435
 C        -1.154501        -0.447466         0.210812
 C        -2.436968        -0.136614        -0.489246
 C        -2.810172        -1.421627        -1.326948
 C        -2.128428         1.169093        -1.257596
 O        -3.372832         1.970003        -1.264134
 C        -3.805365         2.557135        -2.501190
 O        -3.339180         2.537547        -3.613425
 H         1.888166         0.082808         0.126349
 H         1.513564         0.489875         1.813366
 H         2.001076        -1.201588         1.322560
 H        -3.298182         0.142049         0.168088
 H        -3.932264        -1.575133        -1.355900
 H        -2.797297        -1.414920        -2.363103
 H        -2.359490        -2.397305        -1.126512
 H        -1.280513         1.696555        -0.748398
 H        -1.649061         1.035610        -2.303362
 H        -4.675159         3.184753        -2.182715
