19
Iteration:  4710charge 0 multiplicity 1
 C         1.546768        -0.625381         1.129888
 C         0.210796        -0.344056         0.503673
 C        -0.966323        -0.322271         0.049663
 C        -2.260256         0.086731        -0.429525
 C        -3.258960        -0.990230        -0.749015
 C        -2.031277         1.092644        -1.581088
 O        -3.312151         1.138161        -2.363704
 C        -3.897018         2.205864        -2.794290
 O        -3.564001         3.334711        -2.513404
 H         1.777300         0.086358         1.943487
 H         1.640225        -1.729582         1.345507
 H         2.333093        -0.586697         0.440430
 H        -2.728516         0.678218         0.435143
 H        -3.912832        -0.696231        -1.661538
 H        -2.627916        -1.848917        -0.923177
 H        -3.896748        -1.108854         0.158777
 H        -1.766848         2.088287        -1.264073
 H        -1.334786         0.569618        -2.232914
 H        -4.825807         1.974480        -3.402350
