19
Iteration:  1901charge 0 multiplicity 1
 C         1.350177         0.296249         0.488071
 C        -0.131520         0.101204         0.172391
 C        -1.306293        -0.158207         0.002043
 C        -2.735126        -0.308210        -0.294603
 C        -2.952371        -1.858718        -0.529174
 C        -3.023502         0.512995        -1.544474
 O        -2.909523         1.955596        -1.238665
 C        -3.030946         2.731347        -2.326792
 O        -3.024276         2.399713        -3.491464
 H         1.412765         0.948386         1.318351
 H         1.944179        -0.571018         0.494218
 H         2.003972         0.872330        -0.276522
 H        -3.332167        -0.073744         0.631813
 H        -3.641676        -2.169038        -1.318007
 H        -1.996711        -2.349306        -0.621173
 H        -3.415081        -2.367115         0.341210
 H        -2.143504         0.239357        -2.213749
 H        -3.970040         0.413542        -2.097555
 H        -3.181614         3.807006        -1.823798
