19
Iteration:  3222charge 0 multiplicity 1
 C         1.101398         0.518200         0.778365
 C        -0.239112         0.110536         0.442408
 C        -1.245571        -0.444468         0.006502
 C        -2.586773        -0.503556        -0.519338
 C        -3.230847        -1.828176        -1.086464
 C        -2.694979         0.422982        -1.687825
 O        -2.222799         1.909820        -1.380285
 C        -2.850123         2.806596        -2.221583
 O        -3.702782         2.571711        -3.060013
 H         0.935470         1.212117         1.612991
 H         1.777968        -0.354492         0.959544
 H         1.670891         0.964846        -0.042230
 H        -3.275353        -0.223769         0.327500
 H        -4.048260        -1.559495        -1.740560
 H        -2.440983        -2.305160        -1.632165
 H        -3.638378        -2.445686        -0.283811
 H        -2.125482        -0.128754        -2.496796
 H        -3.713570         0.530053        -2.035160
 H        -2.588517         3.852043        -1.791789
