19
Iteration:  4535charge 0 multiplicity 1
 C         1.525966        -0.725230         0.928523
 C         0.151681        -0.397384         0.559740
 C        -1.016981        -0.068374         0.347789
 C        -2.337059         0.047883        -0.255377
 C        -2.779662        -1.372477        -1.061221
 C        -2.367658         1.204776        -1.313742
 O        -3.773705         1.471559        -1.797065
 C        -3.944778         2.364025        -2.774005
 O        -3.086576         3.059496        -3.249313
 H         1.926273        -1.805429         1.112934
 H         2.205388        -0.355638         0.058828
 H         1.695761        -0.060430         1.757125
 H        -3.022592         0.355271         0.527625
 H        -3.847549        -1.195039        -1.267487
 H        -2.157765        -1.395992        -2.041851
 H        -2.419863        -2.144049        -0.341301
 H        -1.913910         2.118159        -0.827366
 H        -1.732167         1.008628        -2.138953
 H        -4.991106         2.574416        -2.916803
