19
Iteration:  1000
 C         1.336779         0.086270         0.920047
 C        -0.047595         0.023622         0.345893
 C        -1.213410         0.157366        -0.087296
 C        -2.561166        -0.115886        -0.613531
 C        -2.989455        -1.528344        -0.379545
 C        -2.760928         0.248546        -2.143948
 O        -2.339647         1.540449        -2.729816
 C        -3.021540         2.578727        -2.396915
 O        -4.028235         2.718718        -1.743912
 H         1.816789        -0.829379         1.226559
 H         1.968180         0.629254         0.166820
 H         1.234001         0.817730         1.818673
 H        -3.127661         0.497898         0.115087
 H        -3.877588        -1.579608         0.272002
 H        -3.476356        -1.930950        -1.264568
 H        -2.283512        -2.263404        -0.013628
 H        -2.131291        -0.341641        -2.848068
 H        -3.838843         0.153660        -2.496954
 H        -2.532407         3.530475        -2.765087
