19
Iteration:   122
 C         1.131863         0.602512        -0.922531
 C        -0.178275         0.234472        -0.449363
 C        -1.352911         0.054146        -0.145562
 C        -2.819544        -0.061006        -0.013443
 C        -3.304316        -1.590458         0.311449
 C        -3.606625         0.518133        -1.217835
 O        -3.447262         1.981542        -1.351886
 C        -2.507664         2.340323        -2.222383
 O        -1.693788         1.654416        -2.829202
 H         1.009822         1.132092        -2.012780
 H         1.714094         1.300322        -0.363205
 H         1.773837        -0.227076        -0.966189
 H        -3.128681         0.567637         0.863183
 H        -3.200018        -1.777532         1.372892
 H        -4.302570        -1.861595        -0.042508
 H        -2.624649        -2.263450        -0.220897
 H        -3.420897         0.112473        -2.175811
 H        -4.710228         0.477325        -1.075487
 H        -2.387288         3.396762        -2.186605
