19
Iteration:  3108
 C         1.203536        -0.177102         0.935705
 C        -0.118911         0.204351         0.483250
 C        -1.196306        -0.037329        -0.087992
 C        -2.574746        -0.341491        -0.585938
 C        -2.703350        -1.906790        -0.725907
 C        -2.854093         0.420079        -1.839148
 O        -2.783691         1.847310        -1.390514
 C        -3.100816         2.954219        -2.215838
 O        -3.590512         2.791993        -3.315061
 H         1.294120        -0.994153         1.606592
 H         1.876256        -0.450041         0.071159
 H         1.867272         0.559297         1.355866
 H        -3.240671         0.031425         0.180575
 H        -3.658712        -2.191063        -1.224668
 H        -1.823691        -2.260654        -1.295392
 H        -2.650165        -2.375777         0.252683
 H        -2.272276         0.222743        -2.749667
 H        -3.865511         0.193744        -2.279610
 H        -2.633859         3.898769        -1.832842
