19
Iteration:  3309
 C         1.031929         0.429876         0.954478
 C        -0.218294         0.042668         0.380041
 C        -1.213902        -0.436860        -0.085557
 C        -2.530919        -0.524398        -0.599564
 C        -2.995857        -1.994939        -0.658054
 C        -2.694079         0.351508        -1.982888
 O        -2.427645         1.773626        -1.629217
 C        -2.895685         2.913497        -2.157619
 O        -3.737272         2.996868        -3.027063
 H         1.430627         1.421864         1.028982
 H         0.996431         0.073858         2.124226
 H         1.785466        -0.153595         0.391359
 H        -3.152268         0.058604         0.115390
 H        -4.125986        -2.049115        -0.772725
 H        -2.690019        -2.494971        -1.593734
 H        -2.775402        -2.620655         0.225848
 H        -1.812412         0.081648        -2.689571
 H        -3.722092         0.415123        -2.396460
 H        -2.312651         3.806036        -1.781045
