19
Iteration:  1091charge 0 multiplicity 1
 C         1.036692         0.510322         0.817302
 C        -0.138762         0.289440         0.064849
 C        -1.304112         0.006696        -0.204408
 C        -2.634101        -0.038769        -0.655240
 C        -3.195279        -1.571463        -0.497362
 C        -2.761251         0.077521        -2.207701
 O        -2.285433         1.451210        -2.769537
 C        -2.697400         2.466355        -2.042012
 O        -3.706443         2.552821        -1.411437
 H         0.933015         0.664390         1.896177
 H         1.498345        -0.462792         0.752821
 H         1.749347         1.415130         0.412878
 H        -3.299076         0.748702        -0.230716
 H        -3.848093        -1.875012         0.301855
 H        -3.720905        -1.786345        -1.399302
 H        -2.250272        -2.073156        -0.330369
 H        -2.163806        -0.671723        -2.751034
 H        -3.815623        -0.086634        -2.421282
 H        -2.093981         3.408043        -2.266845
