19
Iteration:  3540charge 0 multiplicity 1
 C         1.367450        -0.251312         1.296915
 C         0.188447        -0.309716         0.413984
 C        -0.894294        -0.284892        -0.076122
 C        -2.271190        -0.173538        -0.593410
 C        -3.167758        -1.521537        -0.842249
 C        -2.399146         0.713524        -1.940877
 O        -2.998785         2.008357        -1.410214
 C        -3.592765         2.845120        -2.233304
 O        -3.706727         2.565285        -3.414418
 H         1.643863        -1.209343         1.559189
 H         2.160837         0.399439         0.806991
 H         0.882843         0.188428         2.198826
 H        -2.797049         0.390081         0.171880
 H        -4.168764        -1.357002        -1.309216
 H        -2.589295        -2.214277        -1.548330
 H        -3.243354        -2.042781         0.161786
 H        -1.481131         0.969507        -2.524414
 H        -3.101679         0.050692        -2.588188
 H        -4.011376         3.673027        -1.678538
