19
Iteration:  1993charge 0 multiplicity 1
 C         1.250455         0.694414         0.247206
 C        -0.207433         0.229272         0.030954
 C        -1.360572        -0.202084        -0.021998
 C        -2.768929        -0.443999        -0.282462
 C        -3.051274        -1.994038        -0.389576
 C        -3.283618         0.365868        -1.698675
 O        -3.209366         1.773039        -1.268292
 C        -2.699084         2.709254        -2.119900
 O        -2.449630         2.494868        -3.267184
 H         1.307633         1.669811        -0.267442
 H         1.705022         0.730675         1.242038
 H         1.969725         0.139729        -0.252332
 H        -3.376642         0.018797         0.480647
 H        -3.007314        -2.396445         0.625579
 H        -4.012524        -2.251608        -0.880054
 H        -2.216548        -2.514687        -0.887775
 H        -2.667377         0.271960        -2.566005
 H        -4.375052         0.162492        -1.937174
 H        -2.542776         3.806243        -1.806482
