19
Iteration:  3992
 C         1.482315        -0.381094         0.851617
 C         0.096419        -0.441236         0.295211
 C        -1.004668        -0.321961        -0.208660
 C        -2.466712        -0.028960        -0.437062
 C        -3.187070        -1.007184        -1.249854
 C        -2.309090         1.397882        -0.917226
 O        -3.429300         2.234935        -1.254450
 C        -3.695869         2.389237        -2.586240
 O        -3.149501         1.694635        -3.390614
 H         2.279259        -1.092872         0.460342
 H         1.891778         0.633817         0.977435
 H         1.403384        -0.594964         1.979762
 H        -2.918468         0.005673         0.628359
 H        -4.155126        -0.955778        -0.866515
 H        -2.819780        -0.848489        -2.297881
 H        -2.783440        -1.969364        -0.907379
 H        -2.052929         1.931720         0.014706
 H        -1.563780         1.552718        -1.582520
 H        -4.238788         3.389908        -2.704110
