19
Iteration:   771charge 0 multiplicity 1
 C         1.499840        -0.248459         0.655259
 C         0.097323        -0.087695         0.225860
 C        -1.079629         0.084666         0.039458
 C        -2.503120         0.077167        -0.340611
 C        -3.111713        -1.403852        -0.110947
 C        -2.601695         0.434361        -1.818954
 O        -2.287564         1.759048        -2.111324
 C        -3.285703         2.682049        -2.382260
 O        -4.308865         2.473316        -2.933954
 H         1.758162         0.126907         1.612580
 H         1.550186        -1.370394         0.621343
 H         2.196569         0.087125        -0.167877
 H        -3.086478         0.761820         0.340246
 H        -3.073437        -1.568306         1.000921
 H        -4.170847        -1.559476        -0.493272
 H        -2.400112        -2.133065        -0.568451
 H        -1.849994        -0.188293        -2.399906
 H        -3.663178         0.147655        -2.120290
 H        -3.130293         3.757643        -1.966953
