19
Iteration:  2386
 C         1.219273         0.456074         0.298838
 C        -0.226922         0.243417         0.178112
 C        -1.414640         0.077198        -0.017083
 C        -2.839926        -0.456645        -0.356083
 C        -2.908852        -1.985722        -0.690861
 C        -3.378107         0.397817        -1.539592
 O        -3.388695         1.881747        -1.317828
 C        -2.850498         2.690708        -2.204318
 O        -2.069764         2.419478        -3.097083
 H         1.599019         1.455691        -0.095712
 H         1.494954         0.327251         1.346454
 H         2.033404        -0.108319        -0.397004
 H        -3.442862        -0.199352         0.519423
 H        -1.949959        -2.387516        -0.262964
 H        -3.749356        -2.585983        -0.284199
 H        -2.934525        -2.144480        -1.785870
 H        -2.774569         0.118929        -2.460263
 H        -4.415288         0.107997        -1.667356
 H        -2.932689         3.759341        -1.924951
