19
Iteration:  4317
 C         1.400542        -0.673308         1.110534
 C         0.038005        -0.276451         0.605148
 C        -1.067513        -0.160490         0.115323
 C        -2.414251        -0.024511        -0.586843
 C        -2.665968        -1.325515        -1.372437
 C        -2.267585         1.320931        -1.320027
 O        -3.495377         2.001694        -1.284453
 C        -3.831783         2.631092        -2.479597
 O        -3.335055         2.184319        -3.486337
 H         2.059279         0.200078         0.949517
 H         1.722813        -0.914398         2.178903
 H         1.635244        -1.525602         0.567900
 H        -3.252939        -0.021130         0.177519
 H        -3.674443        -1.569769        -1.208923
 H        -2.319130        -1.155804        -2.441179
 H        -2.085009        -2.141155        -0.918767
 H        -1.488370         2.031607        -0.828280
 H        -2.105720         1.151855        -2.355265
 H        -4.745660         3.295638        -2.288107
