19
Iteration:  1241charge 0 multiplicity 1
 C         0.825828         0.857625         0.413345
 C        -0.467707         0.387607         0.208477
 C        -1.452870        -0.216476        -0.220409
 C        -2.766434        -0.440547        -0.689264
 C        -3.162205        -1.852532        -0.602377
 C        -2.881695         0.218043        -2.169816
 O        -1.957209         1.419394        -2.385024
 C        -2.423153         2.571840        -1.965213
 O        -3.511602         2.706086        -1.445311
 H         1.025279         1.094407        -0.676392
 H         0.767487         1.763168         1.128741
 H         1.556550         0.168666         0.824951
 H        -3.448338         0.132743        -0.053088
 H        -2.370854        -2.387847        -1.185529
 H        -2.921538        -2.282857         0.351922
 H        -4.174507        -2.148074        -0.987664
 H        -2.512551        -0.482122        -2.954137
 H        -3.905923         0.636230        -2.353705
 H        -1.774401         3.414962        -2.113738
