19
Iteration:  3359charge 0 multiplicity 1
 C         1.160875         0.127090         1.065906
 C        -0.134972        -0.028408         0.471535
 C        -1.282853        -0.072961        -0.011391
 C        -2.582607        -0.286512        -0.555760
 C        -2.778532        -1.784448        -0.961843
 C        -2.982189         0.403229        -1.824111
 O        -2.403727         1.724485        -1.711129
 C        -2.888660         2.793333        -2.224999
 O        -3.785844         2.783652        -3.005659
 H         1.614045         1.016348         0.428311
 H         1.097225         0.546432         2.026267
 H         1.925019        -0.695953         1.034264
 H        -3.348875        -0.130159         0.275170
 H        -3.674056        -2.093645        -1.538979
 H        -1.920991        -2.164990        -1.526543
 H        -3.008168        -2.426433        -0.068797
 H        -2.529449        -0.087652        -2.674933
 H        -4.025998         0.613457        -1.838752
 H        -2.447825         3.717287        -1.796172
