19
Iteration:  2657charge 0 multiplicity 1
 C         0.980402         0.468563         0.218466
 C        -0.385456         0.116862         0.282883
 C        -1.515916        -0.208385         0.309281
 C        -2.763294        -0.527645        -0.370494
 C        -2.927004        -2.054850        -0.791740
 C        -2.715482         0.441503        -1.698436
 O        -2.736607         1.825896        -1.228120
 C        -2.798243         2.808264        -2.076248
 O        -3.009298         2.727394        -3.260551
 H         1.752479         0.405241         0.994011
 H         1.565822        -0.069521        -0.657789
 H         1.001417         1.496428         0.080074
 H        -3.723593        -0.269850         0.090854
 H        -3.876934        -1.999942        -1.287718
 H        -2.098725        -2.157519        -1.505793
 H        -2.961013        -2.588190         0.135254
 H        -1.691649         0.196914        -2.083502
 H        -3.414822         0.140838        -2.458474
 H        -2.335206         3.698701        -1.587761
