19
Iteration:  3625charge 0 multiplicity 1
 C         1.391937        -0.537352         0.960648
 C         0.086350        -0.343150         0.355529
 C        -1.126563        -0.189271         0.296897
 C        -2.348425        -0.061083        -0.470720
 C        -2.774711        -1.452423        -0.925548
 C        -2.225096         0.982645        -1.553086
 O        -3.333731         2.076099        -1.338414
 C        -3.801808         2.695026        -2.444128
 O        -3.519975         2.458404        -3.592891
 H         1.378078        -1.224950         1.868392
 H         2.216085        -1.141997         0.371933
 H         2.064105         0.326515         1.141860
 H        -3.121918         0.373066         0.241139
 H        -3.813799        -1.335258        -1.228999
 H        -2.169990        -1.963237        -1.735127
 H        -2.679311        -2.178006        -0.100919
 H        -1.312404         1.571179        -1.391327
 H        -2.133330         0.523382        -2.464105
 H        -4.434033         3.603841        -2.079134
