19
Iteration:    78
 C         1.188712         0.431729        -0.738349
 C        -0.246228         0.397015        -0.499496
 C        -1.428469         0.162782        -0.217349
 C        -2.836893        -0.035204         0.049381
 C        -3.208564        -1.508965         0.247043
 C        -3.557925         0.502856        -1.176057
 O        -3.348019         1.836977        -1.267480
 C        -2.516665         2.335481        -2.262630
 O        -1.848371         1.709231        -3.025126
 H         1.339564         1.451627        -1.169421
 H         1.758726         0.393595         0.192969
 H         1.436755        -0.422234        -1.318209
 H        -3.100452         0.585415         0.926029
 H        -2.540783        -1.897211         1.009001
 H        -4.251841        -1.641836         0.556230
 H        -3.010769        -2.053276        -0.684873
 H        -3.159595        -0.055601        -1.989551
 H        -4.654904         0.286723        -1.162535
 H        -2.589460         3.399272        -2.138195
