19
Iteration:  4550charge 0 multiplicity 1
 C         1.482825        -0.721478         0.840324
 C         0.091640        -0.359355         0.636992
 C        -1.063227        -0.077930         0.344136
 C        -2.376136         0.074611        -0.304450
 C        -2.712013        -1.203586        -0.991389
 C        -2.334115         1.251957        -1.329311
 O        -3.659485         1.285561        -1.821583
 C        -3.892172         2.381942        -2.674828
 O        -3.125856         3.094890        -3.259206
 H         1.363579        -1.733121         1.066544
 H         2.079251        -0.748215        -0.088615
 H         2.079511        -0.262091         1.691561
 H        -3.233939         0.219519         0.381286
 H        -3.774111        -1.511010        -1.045702
 H        -2.388205        -1.217292        -1.969278
 H        -2.322370        -2.137028        -0.599707
 H        -2.118659         2.220854        -0.938196
 H        -1.709615         0.875866        -2.209864
 H        -5.008960         2.292291        -2.888746
