19
Iteration:  1839charge 0 multiplicity 1
 C         1.512623         0.075624         0.711266
 C        -0.004948         0.046233         0.427040
 C        -1.128030        -0.134765        -0.047874
 C        -2.613091        -0.200028        -0.301676
 C        -2.859401        -1.813750        -0.658405
 C        -3.114141         0.586531        -1.498566
 O        -2.891535         2.065554        -1.347991
 C        -3.092509         2.751209        -2.454607
 O        -3.470798         2.343104        -3.536127
 H         1.613253        -0.500922         1.678562
 H         2.115671        -0.629710         0.025221
 H         1.842028         1.094126         0.693789
 H        -3.162210        -0.015888         0.601083
 H        -1.874483        -2.195417        -1.067176
 H        -3.205112        -2.208260         0.309353
 H        -3.640287        -1.930930        -1.466228
 H        -2.522986         0.213890        -2.335337
 H        -4.185641         0.364474        -1.719176
 H        -2.814346         3.779013        -2.339979
