19
Iteration:   717
 C         1.548500        -0.304441         0.607434
 C         0.105237         0.000544         0.357216
 C        -1.079909         0.031608        -0.012365
 C        -2.475285        -0.021628        -0.396703
 C        -3.010788        -1.470205        -0.059435
 C        -2.850606         0.496748        -1.836420
 O        -2.369637         1.905335        -1.820910
 C        -3.167956         2.705655        -2.600277
 O        -4.275302         2.399540        -3.024795
 H         1.693864        -0.837735         1.589884
 H         2.010598        -0.983655        -0.143423
 H         1.974741         0.642764         0.735472
 H        -3.001971         0.583865         0.317679
 H        -2.418177        -1.890691         0.778177
 H        -4.036688        -1.222949         0.339036
 H        -2.983322        -2.208996        -0.873673
 H        -2.325358        -0.069262        -2.652147
 H        -3.963377         0.427940        -1.993178
 H        -2.691872         3.660446        -2.924601
