19
Iteration:  4634charge 0 multiplicity 1
 C         1.504532        -0.917324         0.965840
 C         0.168698        -0.490520         0.523327
 C        -0.947183        -0.018801         0.171361
 C        -2.361152         0.232067        -0.223478
 C        -2.788068        -1.208062        -0.676177
 C        -2.407399         1.236446        -1.338364
 O        -3.490771         1.125387        -2.267620
 C        -3.829384         2.261133        -3.006800
 O        -3.452192         3.404870        -2.827343
 H         1.601432        -1.156145         2.065796
 H         1.951005        -1.735683         0.293156
 H         2.188812        -0.086351         0.752193
 H        -3.113276         0.564410         0.506995
 H        -3.863074        -1.179162        -1.085224
 H        -1.976410        -1.439707        -1.379223
 H        -2.704689        -1.771519         0.298180
 H        -2.311900         2.229011        -0.906724
 H        -1.464229         1.181819        -1.866251
 H        -4.546083         2.008757        -3.794319
