19
Iteration:  1897
 C         1.359171         0.283844         0.508719
 C        -0.115862         0.075048         0.172230
 C        -1.315469        -0.126086        -0.011022
 C        -2.728168        -0.295116        -0.286055
 C        -2.953337        -1.839675        -0.508839
 C        -3.023007         0.511010        -1.548665
 O        -2.912394         1.954113        -1.244556
 C        -3.024753         2.704094        -2.312313
 O        -3.057541         2.397353        -3.491885
 H         1.572782         0.955284         1.425246
 H         2.056061        -0.629753         0.459490
 H         1.962638         0.917705        -0.189914
 H        -3.369898        -0.068079         0.591732
 H        -3.489586        -2.036514        -1.507329
 H        -1.970914        -2.354770        -0.728070
 H        -3.572102        -2.406945         0.217401
 H        -2.179319         0.302168        -2.178948
 H        -3.942026         0.479082        -2.115035
 H        -3.149418         3.695409        -1.994793
