19
Iteration:   269
 C         1.180378         0.504764        -0.770407
 C        -0.133433         0.089095        -0.274002
 C        -1.341165        -0.058688        -0.068325
 C        -2.828995        -0.098983         0.095908
 C        -3.234850        -1.606126         0.217160
 C        -3.485168         0.588171        -1.128972
 O        -3.439543         2.017383        -1.422697
 C        -2.445930         2.404588        -2.212959
 O        -2.029493         1.867120        -3.197625
 H         1.895052        -0.225866        -0.754892
 H         1.253579         0.739581        -1.897494
 H         1.496622         1.422229        -0.137344
 H        -3.153858         0.435677         0.936802
 H        -2.786811        -2.000037         1.168463
 H        -4.327429        -1.879565         0.233849
 H        -2.725776        -2.197627        -0.602203
 H        -3.204396         0.048632        -2.105171
 H        -4.581220         0.498685        -1.011774
 H        -2.086591         3.350497        -1.838894
