19
Iteration:  4579
 C         1.351790        -0.833431         0.759156
 C         0.080522        -0.212263         0.717246
 C        -1.048583         0.041701         0.381804
 C        -2.329491         0.123180        -0.246222
 C        -2.785425        -1.249657        -0.977533
 C        -2.206103         1.369654        -1.367766
 O        -3.492914         1.177803        -1.983986
 C        -3.948952         2.212105        -2.732851
 O        -3.208420         3.140231        -3.062622
 H         1.272108        -1.918414         1.185177
 H         1.547026        -1.334519        -0.272765
 H         2.160825        -0.299021         1.232622
 H        -3.208642         0.313857         0.364969
 H        -3.920621        -1.423443        -0.922209
 H        -2.659173        -1.110862        -2.123694
 H        -2.084009        -2.134127        -0.736342
 H        -2.001099         2.444414        -1.065997
 H        -1.457309         1.035321        -2.060496
 H        -5.026522         2.164636        -2.891822
