19
Iteration:   585charge 0 multiplicity 1
 C         1.552952        -0.083797         0.319802
 C         0.101301        -0.098258         0.029825
 C        -1.128142         0.071443         0.080613
 C        -2.634066        -0.049355        -0.150239
 C        -3.136910        -1.512791        -0.020615
 C        -2.953905         0.511320        -1.619589
 O        -2.537046         1.891971        -1.570041
 C        -3.077535         2.698603        -2.490185
 O        -3.832781         2.329841        -3.393980
 H         2.299058        -0.679801        -0.437282
 H         1.967531         0.896629         0.710550
 H         1.705267        -0.559598         1.253459
 H        -3.115511         0.557933         0.600029
 H        -2.709674        -2.055267         0.820732
 H        -4.254561        -1.576325         0.151107
 H        -2.929884        -2.177490        -0.862265
 H        -2.340847        -0.132940        -2.287472
 H        -4.045938         0.378066        -1.743608
 H        -2.566954         3.590706        -2.228330
