19
Iteration:  3409charge 0 multiplicity 1
 C         1.181829        -0.077607         1.023218
 C        -0.183628        -0.042161         0.505401
 C        -1.323176        -0.121213         0.187912
 C        -2.560174        -0.384895        -0.574967
 C        -2.637129        -1.846115        -1.004730
 C        -2.891741         0.654168        -1.680228
 O        -2.345659         2.058558        -1.571653
 C        -2.928977         2.885727        -2.523284
 O        -3.997431         2.590168        -3.067686
 H         2.009131        -0.070634         0.367042
 H         1.340937         0.588687         1.938106
 H         1.098950        -1.046490         1.574468
 H        -3.373617        -0.512199         0.112877
 H        -3.634806        -2.234280        -1.246452
 H        -1.978898        -2.101697        -1.876548
 H        -2.366894        -2.537654        -0.189649
 H        -2.312413         0.385883        -2.585185
 H        -4.035802         0.781123        -1.891832
 H        -2.367838         3.804344        -2.802358
