19
Iteration:  1905
 C         1.328722         0.322650         0.444711
 C        -0.119351         0.123030         0.173500
 C        -1.297388        -0.177983         0.018551
 C        -2.742673        -0.335049        -0.294569
 C        -2.959862        -1.879165        -0.540084
 C        -3.008601         0.517543        -1.548126
 O        -2.909164         1.946615        -1.232827
 C        -3.038489         2.776967        -2.327935
 O        -2.995869         2.403522        -3.488119
 H         1.306983         0.939056         1.385907
 H         1.845762        -0.685790         0.640627
 H         1.840051         0.802236        -0.340114
 H        -3.282941        -0.015618         0.571762
 H        -3.753161        -2.226145        -1.212939
 H        -1.977497        -2.369453        -0.595700
 H        -3.251374        -2.255415         0.468472
 H        -2.242178         0.225517        -2.247510
 H        -4.001164         0.286433        -2.029630
 H        -3.164915         3.758309        -1.858355
