19
Iteration:  1804
 C         1.445824        -0.079756         0.864388
 C         0.084209        -0.043550         0.254809
 C        -1.113460         0.017721        -0.022684
 C        -2.545864        -0.180243        -0.360123
 C        -2.786176        -1.754909        -0.582546
 C        -3.091426         0.574214        -1.492461
 O        -2.746709         2.041871        -1.431195
 C        -3.211069         2.742948        -2.485941
 O        -3.657932         2.394622        -3.543494
 H         1.448034        -0.851519         1.660727
 H         2.241976        -0.082524         0.124545
 H         1.627522         0.802324         1.582574
 H        -3.078441         0.138500         0.521265
 H        -2.180976        -2.394362         0.143537
 H        -3.839163        -2.077175        -0.418295
 H        -2.579608        -2.076396        -1.643892
 H        -2.578526         0.299375        -2.473686
 H        -4.198158         0.422380        -1.590491
 H        -2.996808         3.760566        -2.067833
