19
Iteration:   537charge 0 multiplicity 1
 C         1.501526        -0.042396         0.096255
 C         0.085705         0.047336         0.157910
 C        -1.159433        -0.098612         0.159828
 C        -2.691627        -0.109252        -0.154381
 C        -3.117737        -1.542349         0.086510
 C        -3.011972         0.532743        -1.553768
 O        -2.685378         1.903775        -1.496032
 C        -3.042809         2.706510        -2.503033
 O        -3.562884         2.350998        -3.518216
 H         1.614417         0.217089        -0.908506
 H         2.068527         0.577029         0.767672
 H         2.169986        -1.037195         0.255740
 H        -3.149316         0.538570         0.572053
 H        -2.634840        -1.991778         0.995228
 H        -4.204535        -1.701327         0.199405
 H        -2.781507        -2.233269        -0.759640
 H        -2.186610        -0.025917        -2.090046
 H        -4.017197         0.261439        -1.888411
 H        -2.893034         3.628636        -2.034080
