19
Iteration:  2766charge 0 multiplicity 1
 C         1.184597         0.324316         1.002782
 C        -0.006450         0.043776         0.219764
 C        -1.136552        -0.309491        -0.265431
 C        -2.534265        -0.494045        -0.472410
 C        -3.004096        -1.845356        -0.966704
 C        -3.229472         0.613536        -1.406141
 O        -2.718454         1.961538        -1.196710
 C        -2.760863         2.703020        -2.362351
 O        -3.424964         2.629591        -3.376849
 H         0.894585         1.321793         1.540783
 H         1.437654        -0.572605         1.782747
 H         2.136074         0.602101         0.439935
 H        -3.119413        -0.449595         0.456471
 H        -3.938436        -1.806382        -1.423074
 H        -2.422335        -2.226419        -1.786326
 H        -3.031594        -2.815681        -0.500993
 H        -2.938360         0.455288        -2.482137
 H        -4.263545         0.552553        -1.069729
 H        -1.828174         3.293362        -2.411023
