19
Iteration:  3996
 C         1.460804        -0.379706         0.889019
 C         0.124976        -0.431666         0.302960
 C        -0.984309        -0.306943        -0.238537
 C        -2.470688        -0.029793        -0.413387
 C        -3.224080        -0.992271        -1.260481
 C        -2.295756         1.412348        -0.926946
 O        -3.443447         2.228633        -1.255726
 C        -3.700590         2.382236        -2.580459
 O        -3.154474         1.690637        -3.380816
 H         2.303612        -1.135865         0.573203
 H         2.012474         0.553184         0.840589
 H         1.400657        -0.654675         1.902158
 H        -2.944591        -0.009371         0.551688
 H        -4.266508        -1.113651        -0.841765
 H        -2.880716        -0.844571        -2.262203
 H        -2.663284        -1.981411        -1.108408
 H        -1.949994         2.012052        -0.033415
 H        -1.385075         1.472396        -1.689377
 H        -4.221775         3.351505        -2.656093
