19
Iteration:  3205
 C         1.126170         0.465492         0.742875
 C        -0.229782         0.017403         0.492940
 C        -1.306805        -0.384672         0.113327
 C        -2.642511        -0.527781        -0.489305
 C        -3.111057        -1.934787        -1.070579
 C        -2.703390         0.544279        -1.696440
 O        -2.347018         1.914148        -1.411981
 C        -2.821700         2.868360        -2.264571
 O        -3.701193         2.598036        -3.051178
 H         1.474465         0.986827         1.681708
 H         1.833010        -0.346794         0.772008
 H         1.501269         1.143212        -0.118703
 H        -3.469118        -0.174220         0.132293
 H        -4.026153        -1.659206        -1.667218
 H        -2.300785        -2.449204        -1.686589
 H        -3.356679        -2.585647        -0.215367
 H        -1.998796         0.345793        -2.475930
 H        -3.683883         0.497601        -2.256854
 H        -2.151371         3.699793        -2.309375
