19
Iteration:  3435
 C         1.275670        -0.180570         1.100909
 C        -0.138122        -0.068060         0.660520
 C        -1.218867        -0.119848         0.099336
 C        -2.565431        -0.184569        -0.474751
 C        -2.706913        -1.668395        -1.086293
 C        -2.810815         0.540683        -1.719648
 O        -2.464829         1.913651        -1.615375
 C        -3.078770         2.850011        -2.428165
 O        -3.974606         2.632805        -3.191738
 H         1.955965        -0.445739         0.189504
 H         1.604842         0.690863         1.606655
 H         1.353805        -0.954325         1.917121
 H        -3.381167        -0.122216         0.304060
 H        -3.691516        -2.046677        -1.330479
 H        -2.117306        -1.742634        -1.982899
 H        -2.259463        -2.445521        -0.460330
 H        -2.198900         0.195262        -2.535206
 H        -3.858620         0.444867        -2.026591
 H        -2.688166         3.898906        -2.222925
