19
Iteration:   962
 C         1.288339        -0.004134         0.947278
 C         0.041513         0.191944         0.225320
 C        -1.066504         0.029725        -0.234053
 C        -2.536189        -0.068973        -0.552286
 C        -3.133650        -1.381057        -0.387611
 C        -2.709634         0.294673        -2.082626
 O        -2.213898         1.515366        -2.494306
 C        -3.055774         2.589579        -2.313557
 O        -4.212024         2.597282        -1.960101
 H         1.855349        -0.852734         0.504276
 H         1.868751         0.856027         0.702729
 H         1.297686        -0.113653         1.935821
 H        -3.154058         0.661864        -0.043242
 H        -3.684850        -1.278982         0.551001
 H        -3.845034        -1.644729        -1.213511
 H        -2.365413        -2.188139        -0.389463
 H        -2.097881        -0.481602        -2.518631
 H        -3.737541         0.214882        -2.344085
 H        -2.482239         3.436254        -2.777405
