19
Iteration:  1724
 C         1.442305        -0.151996         0.903437
 C         0.096109        -0.036773         0.387959
 C        -1.069813        -0.152852         0.071922
 C        -2.464142        -0.171719        -0.429573
 C        -2.891372        -1.616853        -0.423378
 C        -2.714245         0.558465        -1.788726
 O        -2.575101         1.988708        -1.657693
 C        -3.345411         2.785241        -2.459268
 O        -4.066911         2.478871        -3.370843
 H         2.027163        -0.919350         0.451677
 H         2.144452         0.651891         0.687067
 H         1.493957        -0.168384         2.029001
 H        -3.161659         0.256248         0.318404
 H        -3.957304        -1.706661        -0.533094
 H        -2.433531        -2.404409        -1.084734
 H        -2.697938        -2.020295         0.600853
 H        -2.058828         0.245030        -2.631520
 H        -3.752943         0.415565        -2.150229
 H        -3.203584         3.847773        -2.030104
