19
Iteration:  2443charge 0 multiplicity 1
 C         1.303062         0.100017         0.470867
 C        -0.139110         0.171185         0.203766
 C        -1.353760         0.284240         0.001699
 C        -2.732308        -0.236345        -0.367778
 C        -2.663539        -1.716572        -0.851192
 C        -3.435071         0.439228        -1.566042
 O        -3.573995         1.879865        -1.287840
 C        -2.897436         2.593364        -2.159907
 O        -2.283955         2.274200        -3.172656
 H         1.738774         0.630692        -0.360708
 H         1.733269         0.827918         1.282765
 H         1.642955        -0.980669         0.741777
 H        -3.358399        -0.205419         0.545985
 H        -2.416972        -2.415417        -0.088768
 H        -3.638555        -1.990555        -1.252077
 H        -1.860304        -1.816828        -1.626732
 H        -2.768702         0.395054        -2.420829
 H        -4.437054         0.031887        -1.801517
 H        -3.103311         3.673414        -2.052309
