19
Iteration:   847
 C         1.498435        -0.074677         0.655320
 C         0.086707         0.045356         0.413226
 C        -1.061318        -0.208195         0.064734
 C        -2.439423        -0.019473        -0.500446
 C        -3.307979        -1.294722        -0.304193
 C        -2.586176         0.458101        -1.912162
 O        -2.165979         1.833931        -2.152040
 C        -3.184804         2.613632        -2.469312
 O        -4.357900         2.334063        -2.502250
 H         1.966325         0.736739         0.224856
 H         1.842522        -0.315998         1.673375
 H         1.657052        -1.060027         0.069600
 H        -3.027629         0.743815         0.115792
 H        -3.359383        -1.542782         0.759376
 H        -4.297245        -1.028736        -0.683843
 H        -3.062172        -2.103066        -0.971015
 H        -2.018751        -0.085147        -2.703668
 H        -3.700424         0.397750        -2.106891
 H        -2.903840         3.557899        -2.904768
