19
Iteration:   921
 C         1.370385         0.029014         0.849799
 C        -0.042501        -0.069174         0.253633
 C        -1.187664        -0.027170        -0.143592
 C        -2.533742        -0.038714        -0.717893
 C        -3.148594        -1.385581        -0.124786
 C        -2.608726         0.372562        -2.174416
 O        -2.109997         1.699232        -2.312687
 C        -3.110720         2.673256        -2.298911
 O        -4.271428         2.436459        -2.202658
 H         1.993220        -0.222444        -0.081462
 H         1.704161         1.015737         1.185477
 H         1.520939        -0.752317         1.713855
 H        -2.991797         0.725725        -0.079018
 H        -2.673551        -1.433796         0.875610
 H        -4.246570        -1.342856        -0.024674
 H        -2.859417        -2.301310        -0.651519
 H        -1.995946        -0.240999        -2.864308
 H        -3.658767         0.294339        -2.514643
 H        -2.775372         3.663922        -2.677479
