19
Iteration:  4718charge 0 multiplicity 1
 C         1.575323        -0.605557         1.068656
 C         0.179948        -0.386386         0.548020
 C        -0.937697        -0.292138         0.106137
 C        -2.281811         0.157411        -0.455585
 C        -3.292294        -1.033141        -0.743936
 C        -2.001569         1.058563        -1.663329
 O        -3.291311         1.100533        -2.354540
 C        -3.872065         2.217128        -2.770022
 O        -3.571125         3.361260        -2.473242
 H         1.666743         0.104224         1.966536
 H         1.456307        -1.514290         1.642187
 H         2.475892        -0.528174         0.429619
 H        -2.824073         0.809687         0.294272
 H        -3.911511        -0.749072        -1.589320
 H        -2.965016        -2.054557        -1.076460
 H        -3.947647        -1.324702         0.085235
 H        -1.613405         2.141126        -1.365588
 H        -1.406235         0.684662        -2.522158
 H        -4.802686         1.883762        -3.338921
