19
Iteration:  3998charge 0 multiplicity 1
 C         1.454967        -0.388442         0.907367
 C         0.140273        -0.423901         0.302510
 C        -0.972373        -0.301771        -0.248393
 C        -2.462256        -0.024849        -0.397406
 C        -3.235602        -0.995845        -1.264006
 C        -2.282523         1.428789        -0.925391
 O        -3.454613         2.225164        -1.256226
 C        -3.698795         2.382738        -2.567568
 O        -3.157410         1.685753        -3.383845
 H         2.210718        -1.105943         0.627898
 H         2.071946         0.562696         0.741519
 H         1.382406        -0.699693         1.930369
 H        -2.952423        -0.010484         0.529583
 H        -4.355044        -1.195967        -0.898213
 H        -2.995729        -0.824202        -2.303788
 H        -2.651751        -1.957228        -1.214227
 H        -1.879390         2.021935        -0.097485
 H        -1.358466         1.423557        -1.739524
 H        -4.240847         3.299230        -2.660158
