19
Iteration:  4209
 C         1.328020        -1.129362         1.229205
 C         0.162926        -0.556201         0.672926
 C        -0.719354        -0.003075         0.021478
 C        -2.035026         0.350811        -0.440066
 C        -2.682837        -0.849510        -1.327663
 C        -2.160871         1.675968        -1.200499
 O        -3.668111         1.877838        -1.383903
 C        -4.154449         2.023895        -2.633936
 O        -3.517807         2.268559        -3.621253
 H         1.456098        -0.716349         2.244251
 H         1.120697        -2.265552         1.280969
 H         2.289211        -0.775610         0.655296
 H        -2.729058         0.452940         0.411243
 H        -2.910457        -0.378309        -2.265182
 H        -2.121890        -1.847331        -1.555595
 H        -3.562296        -1.118075        -0.704237
 H        -1.780977         2.706035        -0.672334
 H        -1.655459         1.724773        -2.155881
 H        -5.234718         1.950044        -2.656236
