19
Iteration:  1989charge 0 multiplicity 1
 C         1.255259         0.706131         0.244999
 C        -0.209217         0.192474         0.064550
 C        -1.354845        -0.181971        -0.000476
 C        -2.755271        -0.417827        -0.317382
 C        -3.052609        -1.975063        -0.405257
 C        -3.250281         0.357179        -1.683779
 O        -3.207200         1.753736        -1.261237
 C        -2.714775         2.664993        -2.115448
 O        -2.480836         2.528666        -3.294690
 H         1.414000         1.694182        -0.163395
 H         1.593719         0.648783         1.276747
 H         1.992455         0.054015        -0.475036
 H        -3.418054         0.128941         0.440373
 H        -3.226992        -2.402017         0.593047
 H        -4.000193        -2.093098        -0.927466
 H        -2.160057        -2.475635        -0.754552
 H        -2.618012         0.215345        -2.597470
 H        -4.319637         0.101076        -1.801071
 H        -2.473464         3.687463        -1.773622
