19
Iteration:  2194charge 0 multiplicity 1
 C         0.980110         0.973801        -0.253635
 C        -0.423434         0.450806         0.066366
 C        -1.596654         0.114361        -0.022156
 C        -2.883709        -0.453121        -0.378714
 C        -2.944293        -1.925997        -0.806494
 C        -3.534946         0.370845        -1.498872
 O        -3.349086         1.795229        -1.228497
 C        -2.416593         2.468587        -1.861476
 O        -1.710626         1.984667        -2.738348
 H         1.840436         0.450873         0.268798
 H         1.043858         0.695283        -1.352794
 H         1.252240         1.939133         0.075164
 H        -3.563382        -0.270591         0.449079
 H        -3.862521        -2.033490        -1.433287
 H        -2.089436        -2.107455        -1.514934
 H        -3.105245        -2.774141        -0.073990
 H        -3.167988         0.105152        -2.505207
 H        -4.633690         0.347881        -1.511658
 H        -2.112665         3.397314        -1.473574
