19
Iteration:   822
 C         1.472492        -0.135205         0.621598
 C         0.038203        -0.121179         0.427332
 C        -1.051443        -0.067524        -0.173154
 C        -2.514629        -0.007995        -0.392124
 C        -3.250312        -1.351262        -0.169821
 C        -2.562396         0.477376        -1.860036
 O        -2.173431         1.904596        -2.025738
 C        -3.191892         2.635578        -2.576566
 O        -4.364645         2.341430        -2.586330
 H         1.697938         0.951539         0.623829
 H         1.849434        -0.658302         1.491565
 H         1.952393        -0.649903        -0.290750
 H        -2.994335         0.729399         0.269715
 H        -3.632052        -1.484657         0.824755
 H        -4.046471        -1.371692        -0.896446
 H        -2.642212        -2.153062        -0.520446
 H        -1.720047         0.035224        -2.382225
 H        -3.488038         0.281827        -2.361218
 H        -2.875247         3.456651        -3.122776
