19
Iteration:  1047
 C         1.169431         0.249686         0.807322
 C        -0.156719         0.229225         0.400386
 C        -1.216533         0.135337        -0.225184
 C        -2.587652        -0.124993        -0.755949
 C        -3.032067        -1.612929        -0.384755
 C        -2.783827         0.146290        -2.283507
 O        -2.231250         1.401758        -2.636533
 C        -3.019048         2.623338        -2.386586
 O        -3.797614         2.714473        -1.446437
 H         1.086574        -0.307573         1.754370
 H         1.908194        -0.269522         0.175084
 H         1.460806         1.396262         1.173503
 H        -3.167795         0.661164        -0.225113
 H        -3.883266        -1.629966         0.270567
 H        -3.459601        -2.136456        -1.232791
 H        -2.240208        -2.194727         0.115843
 H        -2.342447        -0.579990        -2.988591
 H        -3.859811         0.141428        -2.514474
 H        -2.734260         3.540857        -2.884136
