19
Iteration:  4576
 C         1.334127        -0.836040         0.764368
 C         0.096278        -0.211777         0.717348
 C        -1.065175         0.018088         0.359115
 C        -2.330806         0.137177        -0.253319
 C        -2.769856        -1.239642        -0.974828
 C        -2.187171         1.344915        -1.354377
 O        -3.507585         1.197702        -1.971180
 C        -3.953504         2.221495        -2.739226
 O        -3.196859         3.123168        -3.075443
 H         1.330747        -1.910503         1.162082
 H         1.567596        -1.180938        -0.257265
 H         2.085746        -0.242193         1.225057
 H        -3.220075         0.341469         0.439591
 H        -3.804209        -1.491376        -0.950508
 H        -2.639852        -1.129040        -2.130013
 H        -2.160417        -2.137076        -0.779762
 H        -2.094645         2.449646        -1.034393
 H        -1.436278         0.980022        -2.032609
 H        -5.077453         2.216234        -2.756737
