19
Iteration:  2417charge 0 multiplicity 1
 C         1.192506         0.207294         0.326763
 C        -0.255931         0.243521         0.316948
 C        -1.346344        -0.003030        -0.020016
 C        -2.719125        -0.306373        -0.367553
 C        -2.671237        -1.811057        -0.765477
 C        -3.396071         0.453773        -1.539153
 O        -3.541082         1.958579        -1.342140
 C        -2.898481         2.675842        -2.221166
 O        -2.191669         2.315740        -3.122662
 H         1.507819         1.119950        -0.290472
 H         1.674370         0.557862         1.226656
 H         1.685284        -0.812473         0.220657
 H        -3.296199        -0.153195         0.548055
 H        -1.837212        -2.221200        -0.079055
 H        -3.562424        -2.497112        -0.641053
 H        -2.384387        -1.805003        -1.869869
 H        -2.805034         0.295892        -2.497754
 H        -4.404970         0.067835        -1.481139
 H        -2.929438         3.775737        -2.087378
