19
Iteration:  1529charge 0 multiplicity 1
 C         1.303404        -0.018841         1.022846
 C        -0.091960         0.166397         0.476609
 C        -1.145967         0.021071        -0.094333
 C        -2.460355        -0.020469        -0.716094
 C        -3.067666        -1.478934        -0.526784
 C        -2.500936         0.340039        -2.202826
 O        -2.154462         1.698166        -2.321206
 C        -3.162673         2.606751        -2.356715
 O        -4.370592         2.459080        -2.114823
 H         1.582205         0.788668         1.647121
 H         1.252381        -0.838222         1.712928
 H         2.189508        -0.198056         0.304964
 H        -2.972320         0.773431        -0.137182
 H        -4.074230        -1.662815        -0.818056
 H        -2.572580        -2.315080        -1.097276
 H        -2.886109        -1.746813         0.511521
 H        -1.754833        -0.147315        -2.871456
 H        -3.543032         0.088408        -2.553007
 H        -2.537776         3.584975        -2.586625
