19
Iteration:  4437charge 0 multiplicity 1
 C         1.416819        -0.242502         1.144117
 C         0.188866        -0.314443         0.446238
 C        -0.929927        -0.531718         0.026077
 C        -2.305183        -0.143659        -0.439057
 C        -3.145764        -1.213734        -1.300683
 C        -2.289539         1.089171        -1.365649
 O        -3.522742         1.713990        -1.361366
 C        -3.898037         2.421394        -2.521982
 O        -3.087494         2.647381        -3.370762
 H         2.356744        -0.482944         0.555947
 H         1.699692         0.872797         1.282874
 H         1.281855        -0.699341         2.062504
 H        -2.918641         0.172878         0.409320
 H        -3.611098        -0.377537        -1.790952
 H        -2.424882        -1.729825        -2.043575
 H        -3.897394        -1.706311        -0.675618
 H        -1.579164         1.866045        -0.912517
 H        -1.933152         0.828334        -2.333965
 H        -4.885560         2.914714        -2.344909
