19
Iteration:  2659charge 0 multiplicity 1
 C         0.972458         0.460239         0.218350
 C        -0.367889         0.124686         0.286355
 C        -1.540395        -0.223015         0.301144
 C        -2.773286        -0.529541        -0.373261
 C        -2.914016        -2.028391        -0.789201
 C        -2.711255         0.456128        -1.684022
 O        -2.725155         1.819834        -1.221842
 C        -2.792512         2.806920        -2.079256
 O        -3.022581         2.729111        -3.263840
 H         1.700205         0.358937         1.061925
 H         1.654971        -0.047912        -0.606575
 H         1.003578         1.562346        -0.018688
 H        -3.785962        -0.331123         0.070645
 H        -3.924712        -2.118676        -1.272839
 H        -2.068991        -2.209356        -1.584942
 H        -2.892331        -2.641447         0.201613
 H        -1.727415         0.239783        -2.119958
 H        -3.448916         0.128297        -2.473813
 H        -2.240928         3.710562        -1.661892
