19
Iteration:  4867charge 0 multiplicity 1
 C         1.286770        -0.158002         1.226229
 C        -0.033948        -0.145935         0.533138
 C        -1.031068         0.145703        -0.134786
 C        -2.349323         0.045068        -0.901451
 C        -3.207402        -1.127093        -0.469848
 C        -2.237814         0.448475        -2.394208
 O        -3.388715         1.159918        -2.887128
 C        -3.670034         2.306590        -2.269906
 O        -2.983785         3.004972        -1.511496
 H         1.948723         0.223862         0.504850
 H         1.347172         0.434072         2.140849
 H         1.599953        -1.238125         1.343182
 H        -2.982401         0.927450        -0.622037
 H        -4.014057        -1.368353        -1.102524
 H        -2.545017        -2.085117        -0.581451
 H        -3.741595        -1.101674         0.505603
 H        -1.432798         1.144121        -2.551393
 H        -1.960411        -0.263388        -3.159472
 H        -4.567676         2.739000        -2.797138
