19
Iteration:  3812charge 0 multiplicity 1
 C         1.500092        -1.046797         0.768273
 C         0.254025        -0.347219         0.328360
 C        -0.862293         0.034017         0.001801
 C        -2.306153         0.258658        -0.216792
 C        -2.906685        -0.937583        -1.023306
 C        -2.427436         1.602542        -0.956642
 O        -3.869247         1.766009        -1.460035
 C        -3.946694         2.191643        -2.744789
 O        -2.940429         2.187067        -3.436531
 H         2.164555        -0.222372         0.983505
 H         1.241182        -1.314947         1.858653
 H         1.781461        -1.841869         0.063942
 H        -2.780333         0.332446         0.803371
 H        -3.877999        -1.196432        -0.588643
 H        -3.152101        -0.703620        -2.071429
 H        -2.191833        -1.806154        -1.114149
 H        -2.506339         2.428495        -0.251408
 H        -1.642135         1.824817        -1.696472
 H        -4.971240         2.408416        -3.168082
