19
Iteration:  3405charge 0 multiplicity 1
 C         1.151785        -0.060017         1.009081
 C        -0.193979        -0.044201         0.500258
 C        -1.355863        -0.117064         0.140383
 C        -2.559681        -0.369813        -0.568925
 C        -2.619348        -1.885098        -1.015408
 C        -2.917519         0.643070        -1.656515
 O        -2.337463         2.058839        -1.588485
 C        -2.903119         2.907967        -2.533318
 O        -3.979573         2.583050        -3.035515
 H         2.160722         0.005865         0.519299
 H         1.294545         0.619823         1.894371
 H         1.207300        -1.042274         1.449490
 H        -3.449992        -0.554331         0.073339
 H        -3.694512        -2.220799        -1.245682
 H        -1.916917        -2.126862        -1.839993
 H        -2.446248        -2.399552        -0.007378
 H        -2.239944         0.356911        -2.532804
 H        -3.951528         0.638961        -1.742338
 H        -2.346103         3.805184        -2.722988
