19
Iteration:  4286charge 0 multiplicity 1
 C         1.400658        -0.792820         1.225684
 C         0.106676        -0.477240         0.568403
 C        -0.944104        -0.167671         0.067266
 C        -2.263176         0.076508        -0.498094
 C        -2.684990        -1.173944        -1.347611
 C        -2.238812         1.476698        -1.218135
 O        -3.532830         2.041641        -1.271035
 C        -3.983266         2.382750        -2.567446
 O        -3.436500         2.271258        -3.646540
 H         2.006419         0.085466         1.293082
 H         1.235739        -1.397744         2.166627
 H         2.070367        -1.335550         0.459876
 H        -2.989205         0.117354         0.352195
 H        -3.714275        -1.023784        -1.679040
 H        -1.927877        -1.251559        -2.157637
 H        -2.653180        -2.011515        -0.630928
 H        -1.423338         2.189471        -0.752232
 H        -1.998363         1.321199        -2.278599
 H        -5.057023         2.639450        -2.492372
