19
Iteration:  3702charge 0 multiplicity 1
 C         1.538965        -0.855375         0.862401
 C         0.137338        -0.471780         0.626291
 C        -0.945853        -0.144926         0.195978
 C        -2.256858         0.148981        -0.371236
 C        -2.897485        -1.026675        -1.056982
 C        -2.220267         1.414491        -1.270569
 O        -3.673266         1.816851        -1.349473
 C        -3.967310         2.356369        -2.626338
 O        -3.312842         2.409763        -3.645971
 H         2.170025        -0.596445         1.750578
 H         1.856600        -1.952674         0.674998
 H         2.203559        -0.353934         0.109654
 H        -2.898100         0.491743         0.509730
 H        -3.559398        -0.883720        -1.877374
 H        -2.078474        -1.637308        -1.531016
 H        -3.324018        -1.654321        -0.244401
 H        -1.726938         2.168416        -0.654996
 H        -1.693547         1.321605        -2.183462
 H        -5.080994         2.645534        -2.579580
