19
Iteration:  3603charge 0 multiplicity 1
 C         1.422992        -0.463906         1.053936
 C         0.115282        -0.380863         0.551719
 C        -1.009619        -0.252200         0.103272
 C        -2.423826        -0.091603        -0.523824
 C        -2.908390        -1.527985        -0.883972
 C        -2.314488         1.040840        -1.672397
 O        -3.233143         2.044138        -1.345213
 C        -3.688352         2.738782        -2.390316
 O        -3.585686         2.484619        -3.583266
 H         1.747952        -1.163599         1.826792
 H         2.292184        -0.648371         0.321687
 H         1.804321         0.522699         1.344760
 H        -3.069377         0.417730         0.251893
 H        -3.996834        -1.616535        -0.876604
 H        -2.599882        -1.840700        -1.923676
 H        -2.433473        -2.293476        -0.271173
 H        -1.281138         1.445575        -1.695531
 H        -2.473828         0.697907        -2.631305
 H        -4.453686         3.497841        -1.992299
