19
Iteration:   466charge 0 multiplicity 1
 C         1.452114         0.086703         0.016274
 C         0.047619         0.018231        -0.177470
 C        -1.154535         0.002347         0.081520
 C        -2.555480        -0.125696        -0.062424
 C        -3.201634        -1.514375        -0.059069
 C        -3.216150         0.613943        -1.326634
 O        -2.865583         1.969892        -1.246013
 C        -2.927134         2.565925        -2.467725
 O        -3.202245         2.089315        -3.557718
 H         1.666498         1.145515        -0.222982
 H         1.787183        -0.360518         0.944367
 H         2.108340        -0.422898        -0.644412
 H        -2.982706         0.436688         0.861752
 H        -3.368313        -1.828325         0.969681
 H        -4.235273        -1.450353        -0.493316
 H        -2.591085        -2.303211        -0.489206
 H        -2.827379         0.144589        -2.221897
 H        -4.308831         0.459211        -1.240308
 H        -2.710360         3.692538        -2.301605
