19
Iteration:  1463charge 0 multiplicity 1
 C         1.133951         0.157217         1.118142
 C        -0.146888         0.084395         0.470069
 C        -1.134465         0.044925        -0.282570
 C        -2.494320        -0.032176        -0.786492
 C        -2.936785        -1.470433        -0.500025
 C        -2.693722         0.261842        -2.338847
 O        -2.195553         1.589857        -2.620784
 C        -3.105257         2.604750        -2.366017
 O        -4.043031         2.498090        -1.598527
 H         0.761033         0.292096         2.085886
 H         1.546427        -0.809283         0.994258
 H         1.797564         1.038164         0.828341
 H        -3.115120         0.660115        -0.190302
 H        -2.603389        -2.214225        -1.217482
 H        -2.664931        -1.743808         0.512309
 H        -3.999445        -1.530218        -0.412349
 H        -2.077773        -0.461311        -2.913586
 H        -3.777391         0.180054        -2.657595
 H        -2.736100         3.604443        -2.919468
