19
Iteration:  2305
 C         0.963958         1.012390         0.152971
 C        -0.280297         0.259481        -0.025278
 C        -1.337970        -0.322314        -0.296362
 C        -2.753647        -0.479270        -0.493170
 C        -3.331345        -1.953714        -0.443175
 C        -3.310462         0.309803        -1.662819
 O        -3.238250         1.682297        -1.171709
 C        -2.479213         2.619766        -1.938167
 O        -1.940643         2.459044        -3.032138
 H         0.784182         1.747579         1.015442
 H         1.835583         0.348293         0.530275
 H         1.090944         1.481586        -0.884907
 H        -3.167155         0.128409         0.329576
 H        -3.657829        -2.211246         0.611440
 H        -4.269283        -1.986480        -1.084034
 H        -2.505836        -2.709377        -0.657435
 H        -2.896803         0.263632        -2.635713
 H        -4.415629         0.038623        -1.757676
 H        -2.766903         3.502848        -1.361016
