19
Iteration:  1272
 C         0.949199         0.857201         0.546933
 C        -0.320747         0.323723         0.105425
 C        -1.518896         0.029125        -0.086481
 C        -2.812379        -0.415002        -0.703683
 C        -3.171628        -1.949727        -0.662922
 C        -2.863032         0.209297        -2.282294
 O        -2.006395         1.345206        -2.393768
 C        -2.479187         2.485595        -1.920626
 O        -3.551071         2.789436        -1.441150
 H         1.638748         0.777661        -0.395230
 H         0.879837         1.994823         0.622220
 H         1.399969         0.342063         1.369871
 H        -3.623657         0.063760        -0.166981
 H        -3.176587        -2.213980        -1.704417
 H        -2.485942        -2.532782        -0.049947
 H        -4.147273        -2.247479        -0.219618
 H        -2.496570        -0.524445        -3.011149
 H        -3.862518         0.567856        -2.559172
 H        -1.806984         3.361793        -2.088960
