19
Iteration:  3284
 C         0.994729         0.505478         0.934090
 C        -0.133000        -0.079293         0.293074
 C        -1.256233        -0.388972        -0.165128
 C        -2.605301        -0.463598        -0.705362
 C        -3.151653        -1.907609        -0.697025
 C        -2.616329         0.405365        -1.926709
 O        -2.346906         1.731624        -1.453286
 C        -2.882347         2.824955        -2.129132
 O        -3.701545         2.856042        -3.014977
 H         0.835769         1.602409         1.072451
 H         1.246047         0.279997         2.055452
 H         1.805437         0.602453         0.243220
 H        -3.177187         0.174871        -0.048358
 H        -4.280245        -2.183976        -0.674579
 H        -2.788667        -2.545600        -1.525190
 H        -2.674157        -2.326516         0.269170
 H        -1.649112         0.208309        -2.542092
 H        -3.533187         0.544103        -2.466568
 H        -2.422953         3.714796        -1.772076
