19
Iteration:   139charge 0 multiplicity 1
 C         1.040616         0.619039        -0.972295
 C        -0.168258         0.105070        -0.306090
 C        -1.422339         0.118892        -0.267378
 C        -2.808241        -0.048450         0.020638
 C        -3.238946        -1.401406         0.224946
 C        -3.681093         0.437766        -1.144815
 O        -3.410189         1.851801        -1.348658
 C        -2.403005         2.357765        -2.163319
 O        -1.659222         1.703602        -2.856532
 H         0.804133         0.745062        -2.055567
 H         1.298005         1.614838        -0.435639
 H         2.048814         0.012631        -1.117174
 H        -3.045672         0.543783         0.931170
 H        -3.274797        -1.694817         1.293518
 H        -4.277963        -1.532860        -0.157971
 H        -2.689994        -2.187714        -0.298882
 H        -3.371729        -0.181704        -2.066535
 H        -4.705057         0.244586        -0.878249
 H        -2.677591         3.492773        -2.251461
