19
Iteration:  1627
 C         1.463496        -0.060021         0.818102
 C         0.016488         0.018441         0.477921
 C        -1.136843        -0.092415         0.042294
 C        -2.516921        -0.066722        -0.488769
 C        -3.227873        -1.526836        -0.560130
 C        -2.381935         0.493209        -1.895426
 O        -2.226893         2.014272        -1.859167
 C        -3.258897         2.659091        -2.428843
 O        -4.341177         2.261707        -2.833850
 H         2.082213         0.454229         0.116254
 H         1.663047         0.481707         1.736136
 H         1.918939        -1.098397         1.130001
 H        -3.123740         0.596228         0.085063
 H        -2.646489        -2.422225        -0.407911
 H        -4.119010        -1.739238         0.087159
 H        -3.590691        -1.659823        -1.623181
 H        -1.519699         0.155773        -2.533117
 H        -3.338685         0.322585        -2.461674
 H        -2.956845         3.630822        -2.255483
