19
Iteration:  4714charge 0 multiplicity 1
 C         1.568720        -0.608806         1.105070
 C         0.178311        -0.361989         0.523452
 C        -0.942223        -0.312187         0.080163
 C        -2.277895         0.126877        -0.443692
 C        -3.281028        -1.003695        -0.746295
 C        -2.007612         1.082777        -1.613785
 O        -3.305736         1.129213        -2.360101
 C        -3.884698         2.188986        -2.789229
 O        -3.566371         3.351992        -2.489964
 H         1.699383         0.074658         1.918009
 H         1.537867        -1.670174         1.487855
 H         2.493608        -0.579532         0.421751
 H        -2.766490         0.690708         0.307293
 H        -3.857950        -0.731412        -1.600456
 H        -2.812143        -1.984158        -1.003163
 H        -3.910427        -1.233174         0.111867
 H        -1.710374         2.072162        -1.325476
 H        -1.417041         0.610103        -2.417093
 H        -4.780793         1.942019        -3.328238
