19
Iteration:    14
 C         1.272968         0.345839        -0.476908
 C        -0.144725         0.218297        -0.197562
 C        -1.305276        -0.008984        -0.126447
 C        -2.799132        -0.033740         0.054633
 C        -3.088840        -1.543919         0.273673
 C        -3.560925         0.498273        -1.203440
 O        -3.382394         2.019513        -1.289107
 C        -2.520186         2.491826        -2.444405
 O        -2.267800         1.776994        -3.384964
 H         1.612313         1.231329        -0.128567
 H         2.027990        -0.456287         0.025115
 H         1.405951         0.501659        -1.630605
 H        -3.026259         0.572001         0.900221
 H        -2.303724        -1.984357         0.910115
 H        -4.087201        -1.883600         0.662911
 H        -2.891366        -1.976302        -0.740529
 H        -3.070770         0.112722        -2.077554
 H        -4.664944         0.231563        -1.170861
 H        -2.051780         3.515174        -2.157659
