19
Iteration:  4841charge 0 multiplicity 1
 C         1.198073        -0.321266         1.126647
 C         0.037882         0.022507         0.437916
 C        -1.090245         0.086225        -0.095335
 C        -2.365401         0.224223        -0.682412
 C        -3.064415        -1.162616        -0.533634
 C        -2.204213         0.475650        -2.184503
 O        -3.366993         1.148123        -2.836280
 C        -3.650963         2.341981        -2.425261
 O        -3.061694         2.983134        -1.610385
 H         2.170052         0.176212         0.874003
 H         0.987127        -0.067447         2.217327
 H         1.293031        -1.365168         0.922986
 H        -2.998277         1.053345        -0.258367
 H        -3.831152        -1.347151        -1.381785
 H        -2.367968        -1.927372        -0.775814
 H        -3.540115        -1.537309         0.392052
 H        -1.380896         1.030492        -2.631465
 H        -2.316034        -0.467093        -2.755842
 H        -4.705782         2.587191        -2.806494
