19
Iteration:  4734
 C         1.498342        -0.538405         1.105877
 C         0.139781        -0.469994         0.557032
 C        -0.974340        -0.150517         0.207927
 C        -2.227365         0.123173        -0.486642
 C        -3.317469        -1.092862        -0.740965
 C        -1.964605         0.961195        -1.819431
 O        -3.269931         1.048482        -2.432066
 C        -3.877876         2.261976        -2.675995
 O        -3.559043         3.426486        -2.398578
 H         1.787374         0.381612         1.517933
 H         1.838498        -1.455532         1.636156
 H         2.085964        -0.660250         0.190599
 H        -2.762319         0.844199         0.159993
 H        -4.155528        -0.725345        -1.387738
 H        -2.717351        -1.883143        -1.166814
 H        -3.635924        -1.390453         0.276578
 H        -1.722996         1.921005        -1.596162
 H        -1.260298         0.401306        -2.434045
 H        -4.747635         2.064101        -3.315169
