19
Iteration:  2614
 C         1.095952         0.539245         0.296544
 C        -0.246442         0.079486         0.339152
 C        -1.371295        -0.282207         0.123610
 C        -2.702874        -0.446648        -0.395232
 C        -3.062273        -1.917078        -0.734967
 C        -2.843897         0.417778        -1.724017
 O        -2.849791         1.770106        -1.202743
 C        -3.023537         2.783955        -2.076487
 O        -2.754431         2.683879        -3.243092
 H         1.892241        -0.137237         0.670481
 H         1.416314         0.517310        -0.876370
 H         1.268884         1.584103         0.613589
 H        -3.446103        -0.040210         0.363587
 H        -3.664601        -2.026867        -1.646380
 H        -2.164922        -2.543242        -1.099148
 H        -3.633867        -2.538613        -0.005148
 H        -1.979091         0.208720        -2.430209
 H        -3.751268         0.206420        -2.345614
 H        -3.618788         3.647326        -1.668041
