19
Iteration:  4498charge 0 multiplicity 1
 C         1.485056        -0.515133         1.062083
 C         0.179040        -0.364512         0.467650
 C        -0.899774        -0.308751        -0.104320
 C        -2.302689         0.005694        -0.375158
 C        -2.876543        -1.368887        -1.021085
 C        -2.442363         1.219564        -1.211503
 O        -3.819840         1.600576        -1.578433
 C        -3.905783         2.434115        -2.696381
 O        -2.964103         2.904251        -3.313385
 H         1.926374        -1.533435         1.065472
 H         2.097433         0.272472         0.747738
 H         1.404555        -0.291188         2.178640
 H        -2.922531         0.224684         0.541033
 H        -3.622728        -1.459039        -1.793799
 H        -2.093020        -2.042250        -1.390941
 H        -3.374714        -2.028179        -0.332999
 H        -2.019055         2.080286        -0.689596
 H        -1.942170         1.164928        -2.244815
 H        -4.988182         2.545596        -2.912375
