19
Iteration:  4893
 C         1.188894         0.020857         1.228612
 C        -0.077940        -0.117421         0.486637
 C        -1.000702        -0.212395        -0.236032
 C        -2.295064         0.045637        -0.894160
 C        -3.243534        -1.064176        -0.556618
 C        -2.138974         0.493518        -2.346015
 O        -3.434497         1.117717        -2.797434
 C        -3.686744         2.386435        -2.245468
 O        -2.921318         2.930910        -1.485573
 H         1.855495         0.204169         0.293407
 H         1.223590         0.908379         1.837463
 H         1.574597        -0.881812         1.748055
 H        -2.754435         0.896229        -0.470176
 H        -4.299805        -1.014543        -0.939327
 H        -2.898923        -2.060630        -0.701327
 H        -3.483128        -0.914289         0.496871
 H        -1.275987         1.180145        -2.783441
 H        -1.969398        -0.392802        -3.012755
 H        -4.450982         2.883885        -2.809763
