19
Iteration:  2499charge 0 multiplicity 1
 C         1.278924         0.156422         0.689205
 C        -0.093607         0.188836         0.141527
 C        -1.246453         0.079826        -0.364893
 C        -2.612111        -0.303107        -0.517292
 C        -2.649983        -1.912314        -0.637756
 C        -3.463271         0.485461        -1.513716
 O        -3.494534         1.922621        -1.218065
 C        -2.946443         2.738602        -2.216932
 O        -2.422464         2.431471        -3.267357
 H         1.781584        -0.510576        -0.041340
 H         1.567351         1.220011         1.079086
 H         0.998643        -0.582187         1.534347
 H        -3.133202        -0.180380         0.455180
 H        -3.280272        -2.425203         0.097070
 H        -3.131272        -2.140186        -1.577360
 H        -1.668530        -2.414133        -0.620272
 H        -3.230685         0.470772        -2.550522
 H        -4.548078         0.206651        -1.477624
 H        -3.093644         3.729970        -1.732783
