19
Iteration:   146
 C         0.984601         0.606322        -0.973608
 C        -0.193634         0.073928        -0.294658
 C        -1.394792         0.127511        -0.294593
 C        -2.787591         0.017031         0.037761
 C        -3.252937        -1.406281         0.210687
 C        -3.653560         0.435422        -1.112735
 O        -3.376134         1.818356        -1.383230
 C        -2.457414         2.288032        -2.135084
 O        -1.637399         1.751346        -2.862557
 H         0.668757         0.705947        -2.021830
 H         1.205512         1.712661        -0.710026
 H         1.999722         0.147532        -0.873591
 H        -2.980627         0.549393         0.944595
 H        -3.164726        -1.685196         1.285752
 H        -4.305218        -1.579956        -0.122165
 H        -2.631976        -2.114378        -0.397160
 H        -3.402767        -0.129825        -2.022235
 H        -4.780078         0.401261        -0.985351
 H        -2.504910         3.378793        -2.039486
