19
Iteration:  1472charge 0 multiplicity 1
 C         1.144908         0.139331         1.164496
 C        -0.113414         0.019367         0.338039
 C        -1.188109         0.130769        -0.183601
 C        -2.467284        -0.059716        -0.738352
 C        -2.960754        -1.503970        -0.475745
 C        -2.701234         0.242364        -2.308084
 O        -2.199229         1.652236        -2.635647
 C        -3.077323         2.633332        -2.354785
 O        -4.074527         2.467588        -1.686157
 H         1.014196         0.423900         2.199626
 H         1.698092        -0.821903         1.236641
 H         1.925964         0.818210         0.791758
 H        -3.139318         0.603761        -0.230551
 H        -2.814577        -1.976676        -1.440757
 H        -2.358484        -1.924177         0.310704
 H        -4.002968        -1.449299        -0.292620
 H        -2.072200        -0.402409        -2.936007
 H        -3.783891         0.166062        -2.562889
 H        -2.947748         3.656946        -2.860768
