19
Iteration:   609
 C         1.467847        -0.135571         0.426783
 C         0.056720         0.008055         0.224040
 C        -1.086766        -0.204779        -0.119209
 C        -2.493692        -0.093300        -0.261122
 C        -3.059495        -1.458162        -0.016716
 C        -2.997546         0.606301        -1.581669
 O        -2.476127         1.979780        -1.607045
 C        -3.080445         2.685317        -2.554810
 O        -3.964380         2.295244        -3.309667
 H         1.910426        -0.931164        -0.335323
 H         1.927965         0.870809         0.245246
 H         1.832990        -0.308862         1.378578
 H        -2.758133         0.516216         0.624719
 H        -2.887544        -1.755676         1.017971
 H        -4.150400        -1.484526        -0.136941
 H        -2.635801        -2.264335        -0.609275
 H        -2.487454         0.102126        -2.370663
 H        -4.084433         0.568906        -1.700672
 H        -2.525394         3.624551        -2.502592
