19
Iteration:  2770charge 0 multiplicity 1
 C         1.222625         0.321409         1.037418
 C        -0.016930        -0.003335         0.211605
 C        -1.089415        -0.296911        -0.279635
 C        -2.558775        -0.471850        -0.491123
 C        -2.993289        -1.849193        -0.966338
 C        -3.218846         0.632152        -1.398107
 O        -2.715777         1.982480        -1.207919
 C        -2.775771         2.691682        -2.362149
 O        -3.446199         2.612418        -3.385479
 H         0.883561         1.278398         1.397830
 H         1.203092        -0.573476         1.759614
 H         2.132287         0.622148         0.630922
 H        -3.108162        -0.461194         0.483740
 H        -4.034199        -1.788687        -1.405420
 H        -2.410283        -2.156992        -1.895255
 H        -3.001021        -2.826500        -0.366982
 H        -2.955536         0.514832        -2.415405
 H        -4.311285         0.511749        -1.083523
 H        -1.853057         3.314947        -2.269731
