19
Iteration:  1096charge 0 multiplicity 1
 C         1.038986         0.543418         0.811731
 C        -0.173323         0.297365         0.059677
 C        -1.288534        -0.023471        -0.196637
 C        -2.702319        -0.095726        -0.711111
 C        -3.168436        -1.525053        -0.474547
 C        -2.765557         0.103997        -2.190726
 O        -2.251547         1.423965        -2.778158
 C        -2.664173         2.453432        -2.021704
 O        -3.699748         2.544412        -1.388628
 H         0.941220         0.922523         1.924291
 H         1.610982        -0.435006         0.760055
 H         1.611245         1.270399         0.283133
 H        -3.247820         0.759352        -0.317797
 H        -3.884875        -1.793484         0.353659
 H        -3.820719        -1.847133        -1.360348
 H        -2.259640        -2.179768        -0.499128
 H        -2.181387        -0.540533        -2.845166
 H        -3.842637         0.089574        -2.446496
 H        -2.234305         3.435454        -2.128186
