19
Iteration:  1610charge 0 multiplicity 1
 C         1.391819        -0.007214         0.859748
 C         0.045814        -0.117642         0.355638
 C        -1.153784         0.022964         0.173956
 C        -2.483124        -0.078941        -0.493434
 C        -3.159794        -1.435490        -0.619195
 C        -2.396607         0.482078        -1.941472
 O        -2.206897         1.873681        -1.966955
 C        -3.293752         2.681816        -2.327558
 O        -4.340762         2.276949        -2.756386
 H         1.969565         0.726716         0.203310
 H         1.400331         0.305970         1.934746
 H         1.728585        -0.991746         0.749060
 H        -3.218811         0.560609         0.112678
 H        -2.671325        -2.162015         0.087567
 H        -4.207217        -1.242701        -0.419962
 H        -3.326813        -1.964358        -1.587074
 H        -1.495207         0.063615        -2.379952
 H        -3.227517         0.127482        -2.516557
 H        -2.823822         3.824217        -2.336063
