19
Iteration:  2222charge 0 multiplicity 1
 C         0.873927         1.002242        -0.204003
 C        -0.447492         0.394163         0.006925
 C        -1.558588        -0.118462        -0.077296
 C        -2.916975        -0.454325        -0.348444
 C        -3.020891        -1.932421        -0.709131
 C        -3.374824         0.385772        -1.536539
 O        -3.280928         1.780780        -1.143191
 C        -2.442910         2.508362        -1.942516
 O        -1.726684         2.116568        -2.837245
 H         1.493990         0.818560         0.673067
 H         1.248461         0.641372        -1.165234
 H         0.810911         2.138001        -0.196360
 H        -3.549680        -0.217183         0.547761
 H        -4.055546        -2.226329        -0.485426
 H        -2.798751        -2.061908        -1.754935
 H        -2.404481        -2.633420        -0.182222
 H        -2.629547         0.234566        -2.358606
 H        -4.388620         0.248700        -1.924746
 H        -2.139056         3.492684        -1.342387
