19
Iteration:  2510charge 0 multiplicity 1
 C         1.170964         0.155902         0.702295
 C        -0.102703         0.162662         0.146070
 C        -1.192798         0.104812        -0.366142
 C        -2.556451        -0.376701        -0.523361
 C        -2.734167        -1.924687        -0.648305
 C        -3.480328         0.486122        -1.564716
 O        -3.420310         1.911330        -1.260891
 C        -2.935096         2.740079        -2.157542
 O        -2.481129         2.468408        -3.240257
 H         2.005388        -0.265398         0.052266
 H         1.801602         1.172472         0.780723
 H         1.407154        -0.272309         1.751126
 H        -2.943658        -0.035211         0.464436
 H        -3.407422        -2.160735         0.174080
 H        -3.107749        -2.253785        -1.598852
 H        -1.744735        -2.397777        -0.489323
 H        -3.133430         0.228347        -2.537326
 H        -4.518507         0.169463        -1.315986
 H        -3.180298         3.801858        -1.962904
