19
Iteration:  3637charge 0 multiplicity 1
 C         1.418202        -0.644466         0.921862
 C         0.135278        -0.310192         0.387996
 C        -1.080193        -0.129712         0.282063
 C        -2.419710        -0.051836        -0.357416
 C        -2.754391        -1.402370        -0.961023
 C        -2.252750         1.033853        -1.497748
 O        -3.327506         2.022133        -1.390463
 C        -3.804899         2.683613        -2.438696
 O        -3.486205         2.434616        -3.591133
 H         1.325360        -0.982245         1.961975
 H         1.852164        -1.364710         0.100115
 H         1.880435         0.382949         0.974278
 H        -3.280059         0.253554         0.307455
 H        -3.599431        -1.370205        -1.652535
 H        -1.842447        -1.676298        -1.607903
 H        -3.074893        -2.119284        -0.158543
 H        -1.358898         1.569999        -1.242529
 H        -2.302345         0.768764        -2.515878
 H        -4.716143         3.319379        -2.143925
