19
Iteration:  4854charge 0 multiplicity 1
 C         1.262288        -0.267058         1.174601
 C        -0.006213        -0.053221         0.488416
 C        -1.082635         0.144008        -0.138641
 C        -2.379028         0.171785        -0.777963
 C        -3.129504        -1.206641        -0.540836
 C        -2.189049         0.436098        -2.317114
 O        -3.379150         1.121812        -2.912149
 C        -3.707013         2.395941        -2.326182
 O        -3.009950         2.997480        -1.545457
 H         2.024194         0.269236         0.683989
 H         1.231435         0.141672         2.251612
 H         1.591671        -1.278034         1.345608
 H        -2.939344         1.012445        -0.233678
 H        -3.946341        -1.268117        -1.278922
 H        -2.432076        -2.079210        -0.463720
 H        -3.515838        -1.009013         0.471403
 H        -1.306528         0.937239        -2.396374
 H        -2.178488        -0.559580        -2.751307
 H        -4.752320         2.704646        -2.691494
