19
Iteration:  1236charge 0 multiplicity 1
 C         0.830265         0.899282         0.412140
 C        -0.497996         0.353710         0.211459
 C        -1.448842        -0.226403        -0.227960
 C        -2.756409        -0.399247        -0.655221
 C        -3.163715        -1.854381        -0.630094
 C        -2.874688         0.221138        -2.207862
 O        -1.943208         1.385014        -2.372297
 C        -2.438914         2.551823        -1.952712
 O        -3.540377         2.728040        -1.422209
 H         1.078961         1.134382        -0.655334
 H         0.881758         1.672975         1.159024
 H         1.586307         0.131217         0.706913
 H        -3.363315         0.303585        -0.040013
 H        -2.309375        -2.433014        -1.015465
 H        -3.024225        -2.320268         0.399259
 H        -4.081846        -2.029238        -1.174573
 H        -2.543540        -0.470119        -2.964280
 H        -3.880619         0.563685        -2.342672
 H        -1.605474         3.310698        -2.362409
