19
Iteration:  1407charge 0 multiplicity 1
 C         1.128216         0.378182         1.196934
 C        -0.087700         0.204330         0.188611
 C        -1.240159         0.084432        -0.190858
 C        -2.583676        -0.133078        -0.851083
 C        -3.147576        -1.545950        -0.584047
 C        -2.660539         0.138138        -2.371638
 O        -2.337736         1.466966        -2.814578
 C        -2.848196         2.606435        -2.094531
 O        -3.863562         2.571849        -1.390860
 H         1.067055        -0.392230         1.933448
 H         2.036903         0.119526         0.605088
 H         1.265743         1.482384         1.476537
 H        -3.167151         0.589333        -0.305003
 H        -2.659617        -1.950944         0.308408
 H        -4.136629        -1.636264        -0.214679
 H        -3.018177        -2.241990        -1.380655
 H        -2.067325        -0.579524        -2.979881
 H        -3.765982        -0.064019        -2.602069
 H        -2.275291         3.492889        -2.702676
