19
Iteration:  1395
 C         1.039022         0.427855         1.054653
 C        -0.115492         0.180775         0.203585
 C        -1.221055         0.072428        -0.208163
 C        -2.602213        -0.105474        -0.790896
 C        -3.125989        -1.543783        -0.586611
 C        -2.706227         0.110657        -2.323839
 O        -2.297038         1.473031        -2.785587
 C        -2.854960         2.542971        -2.127931
 O        -3.773724         2.570633        -1.359670
 H         1.025489        -0.339708         1.852391
 H         2.038875         0.410181         0.550506
 H         0.940406         1.332648         1.678963
 H        -3.315927         0.582741        -0.384305
 H        -2.863187        -1.918840         0.415514
 H        -4.159139        -1.562831        -0.852925
 H        -2.619832        -2.163626        -1.305925
 H        -2.021311        -0.560303        -2.868490
 H        -3.764195        -0.055547        -2.654646
 H        -2.298641         3.578273        -2.382875
