19
Iteration:  2568
 C         1.258948         0.515474         0.577643
 C        -0.070308         0.035151         0.066540
 C        -1.214279        -0.254962        -0.106490
 C        -2.654912        -0.460494        -0.429211
 C        -3.052933        -1.919617        -0.682557
 C        -3.043621         0.429750        -1.633832
 O        -3.294054         1.877896        -1.233671
 C        -2.896960         2.814250        -2.102644
 O        -2.698498         2.573233        -3.270904
 H         1.824114        -0.466029         0.668343
 H         1.939929         1.322489         0.013488
 H         1.010823         0.840037         1.578774
 H        -3.187017        -0.011888         0.446714
 H        -4.086449        -2.058045        -1.066309
 H        -2.482685        -2.438746        -1.460379
 H        -3.100730        -2.499434         0.223967
 H        -2.380114         0.422581        -2.552573
 H        -4.015086         0.162945        -2.056225
 H        -2.763176         3.827627        -1.628463
