19
Iteration:  1534charge 0 multiplicity 1
 C         1.340483        -0.010728         1.011466
 C        -0.106575         0.143290         0.508542
 C        -1.156381         0.035481        -0.100064
 C        -2.457682        -0.039469        -0.736036
 C        -3.047440        -1.504222        -0.506451
 C        -2.520753         0.343918        -2.220605
 O        -2.128022         1.751121        -2.284644
 C        -3.184745         2.595736        -2.342930
 O        -4.363475         2.450657        -2.158598
 H         1.680354         0.917865         1.596636
 H         1.217719        -0.902670         1.697238
 H         2.020645        -0.317678         0.260926
 H        -2.968731         0.783991        -0.169182
 H        -4.211648        -1.469658        -0.572153
 H        -2.765898        -2.371403        -1.109239
 H        -2.823152        -1.928447         0.512296
 H        -1.769394        -0.108421        -2.859229
 H        -3.502791         0.163886        -2.612747
 H        -2.643850         3.472603        -2.650820
