19
Iteration:  1295
 C         0.975241         0.817888         0.609047
 C        -0.364224         0.312263         0.131479
 C        -1.476762         0.004267        -0.194455
 C        -2.759427        -0.268611        -0.740833
 C        -3.127883        -1.787080        -0.774495
 C        -2.815897         0.062369        -2.167480
 O        -2.141616         1.314885        -2.401087
 C        -2.505812         2.464290        -1.930386
 O        -3.557467         2.799896        -1.428891
 H         1.774657         0.296075        -0.008631
 H         1.135116         1.956996         0.464058
 H         1.039164         0.432829         1.619223
 H        -3.523139         0.215880        -0.171268
 H        -3.685308        -2.085672        -1.648629
 H        -2.239493        -2.340740        -0.595490
 H        -3.647984        -2.097686         0.153584
 H        -2.253426        -0.713177        -2.716354
 H        -3.857964         0.153640        -2.530711
 H        -1.865610         3.309745        -2.091219
