19
Iteration:  4663charge 0 multiplicity 1
 C         1.481572        -0.834242         1.076075
 C         0.266601        -0.492776         0.437438
 C        -0.876693        -0.082199         0.077632
 C        -2.244834         0.186841        -0.350986
 C        -3.054767        -1.295621        -0.598435
 C        -2.318430         1.304013        -1.378892
 O        -3.348038         1.159619        -2.356166
 C        -3.941677         2.280987        -2.925765
 O        -3.476463         3.367052        -2.723952
 H         1.346517        -0.466053         2.133890
 H         1.912202        -1.731559         0.754601
 H         2.233265        -0.172780         0.629610
 H        -2.976200         0.595743         0.444278
 H        -3.824982        -1.236381        -1.311611
 H        -2.268013        -2.097760        -0.875065
 H        -3.551630        -1.467965         0.368517
 H        -2.590716         2.267898        -0.732783
 H        -1.416932         1.333518        -2.029536
 H        -4.645421         1.980585        -3.795843
