19
Iteration:  3855
 C         1.486782        -0.869368         0.513283
 C         0.108130        -0.412548         0.423920
 C        -1.033365         0.004937         0.300630
 C        -2.423834         0.159696        -0.129824
 C        -2.717088        -0.979045        -1.112446
 C        -2.447844         1.509668        -0.819101
 O        -3.713044         1.964359        -1.469903
 C        -3.881153         2.189278        -2.746595
 O        -3.007604         2.127931        -3.567496
 H         2.236967        -0.228531        -0.018783
 H         1.805815        -0.832783         1.614983
 H         1.521286        -1.881583         0.140851
 H        -3.141602         0.185757         0.696715
 H        -3.780278        -0.906495        -1.418736
 H        -1.977455        -1.187086        -1.904587
 H        -2.730774        -2.041601        -0.741426
 H        -2.176007         2.266285         0.024282
 H        -1.666113         1.589144        -1.627805
 H        -4.898966         2.554770        -2.963347
