19
Iteration:  3247charge 0 multiplicity 1
 C         1.074175         0.588854         0.912022
 C        -0.164657         0.001921         0.270397
 C        -1.235198        -0.443096        -0.051151
 C        -2.606355        -0.396714        -0.601550
 C        -3.261557        -1.744126        -0.976456
 C        -2.715012         0.435551        -1.827199
 O        -2.224928         1.800094        -1.456721
 C        -2.942239         2.728229        -2.019570
 O        -3.599944         2.562019        -3.020433
 H         0.670069         1.533843         1.409210
 H         1.717701        -0.043255         1.413781
 H         1.746913         0.854711         0.019742
 H        -3.207620        -0.002980         0.252353
 H        -4.174848        -1.582889        -1.539285
 H        -2.448857        -2.175229        -1.595951
 H        -3.432834        -2.362244        -0.111997
 H        -2.259647        -0.070374        -2.613132
 H        -3.774641         0.550041        -2.146712
 H        -2.631803         3.681014        -1.559060
