19
Iteration:   555
 C         1.484608        -0.046870         0.150309
 C         0.023317        -0.035143         0.106998
 C        -1.199524         0.034223         0.085632
 C        -2.605653        -0.034796        -0.060392
 C        -3.129418        -1.490602        -0.009831
 C        -2.866652         0.362193        -1.511197
 O        -2.615154         1.849335        -1.489980
 C        -3.104996         2.673435        -2.491597
 O        -3.656810         2.404648        -3.522854
 H         2.089520        -0.109851        -0.847829
 H         1.834745         0.832836         0.737024
 H         1.742358        -0.984379         0.642091
 H        -3.136218         0.664528         0.707161
 H        -2.638920        -2.169037         0.685715
 H        -4.153876        -1.511295         0.330382
 H        -2.827037        -1.989518        -0.921332
 H        -2.308985        -0.125406        -2.259137
 H        -3.955743         0.258029        -1.686055
 H        -2.736878         3.755734        -2.069893
