19
Iteration:  4948
 C         1.210303         0.213412         1.188382
 C         0.169936        -0.185408         0.237654
 C        -1.046292        -0.281417        -0.110641
 C        -2.339843        -0.126734        -0.772003
 C        -3.543147        -1.154668        -0.747782
 C        -2.133758         0.546679        -2.231068
 O        -3.361461         1.045262        -2.617832
 C        -3.621873         2.411093        -2.323652
 O        -2.877231         3.041731        -1.564522
 H         2.291438        -0.068229         0.938519
 H         1.148170         1.290788         1.317263
 H         0.874315        -0.119176         2.184464
 H        -2.850186         0.699777        -0.348289
 H        -4.466282        -0.492139        -0.654835
 H        -3.562196        -1.675419        -1.662682
 H        -3.393838        -1.840398         0.065915
 H        -1.477447         1.469846        -1.922768
 H        -1.673021        -0.207734        -2.902714
 H        -4.625982         2.685508        -2.617220
