19
Iteration:  4821charge 0 multiplicity 1
 C         1.251172        -0.467126         1.113436
 C         0.054256         0.101595         0.361944
 C        -1.079346         0.168000        -0.004976
 C        -2.416299         0.197534        -0.647971
 C        -3.051681        -1.211021        -0.601106
 C        -2.160619         0.555637        -2.090534
 O        -3.418340         1.008713        -2.778171
 C        -3.640511         2.396469        -2.512922
 O        -3.121929         3.058761        -1.680570
 H         2.125071         0.140083         1.086197
 H         0.909929        -0.491521         2.199978
 H         1.495469        -1.463879         0.815190
 H        -3.159749         0.913083        -0.128156
 H        -4.103585        -1.239299        -1.000892
 H        -2.455446        -2.023978        -1.106221
 H        -3.275377        -1.392466         0.464504
 H        -1.480304         1.339612        -2.168952
 H        -1.656697        -0.249112        -2.639191
 H        -4.465104         2.729262        -3.229757
