19
Iteration:   195charge 0 multiplicity 1
 C         1.014866         0.541981        -0.996744
 C        -0.379221         0.377379        -0.564866
 C        -1.423474         0.071220        -0.027500
 C        -2.871053        -0.104537         0.029417
 C        -3.259431        -1.695797         0.405916
 C        -3.477921         0.494774        -1.287804
 O        -3.378071         1.930858        -1.318419
 C        -2.379002         2.432527        -2.206526
 O        -1.674715         1.736057        -2.892069
 H         1.292796        -0.035276        -1.852873
 H         1.417951         1.528648        -1.299657
 H         1.577341         0.348251        -0.036602
 H        -3.305054         0.538064         0.845247
 H        -2.533705        -2.144698         1.083915
 H        -4.258143        -1.797228         0.848314
 H        -3.261406        -2.303266        -0.507912
 H        -3.113856         0.118594        -2.257160
 H        -4.536470         0.307112        -1.207117
 H        -2.315487         3.573887        -2.094646
