19
Iteration:  2662charge 0 multiplicity 1
 C         0.984882         0.458249         0.211952
 C        -0.357534         0.125628         0.294040
 C        -1.567174        -0.240389         0.291763
 C        -2.795696        -0.527736        -0.386313
 C        -2.893566        -1.993769        -0.787751
 C        -2.708173         0.463476        -1.664015
 O        -2.711661         1.807331        -1.208138
 C        -2.773501         2.812088        -2.089749
 O        -3.043134         2.730949        -3.270261
 H         1.567314         0.295084         1.165457
 H         1.671067         0.009849        -0.493256
 H         1.026057         1.603890        -0.139042
 H        -3.805776        -0.381059         0.078389
 H        -3.931219        -2.286032        -1.233053
 H        -2.114716        -2.301073        -1.587781
 H        -2.785539        -2.669819         0.167141
 H        -1.760244         0.311230        -2.176740
 H        -3.490551         0.169654        -2.439779
 H        -2.187084         3.705284        -1.740110
