19
Iteration:  4812charge 0 multiplicity 1
 C         1.262273        -0.467368         1.084073
 C         0.095139         0.034109         0.411783
 C        -1.099883         0.228212         0.015263
 C        -2.402119         0.153469        -0.655583
 C        -3.100357        -1.252308        -0.569168
 C        -2.096561         0.661650        -2.053245
 O        -3.440532         1.009211        -2.757222
 C        -3.621522         2.350829        -2.601431
 O        -3.147824         3.095516        -1.702659
 H         2.126868         0.105314         1.166098
 H         0.887793        -0.619039         2.124199
 H         1.499490        -1.464414         0.658134
 H        -3.150735         0.874834        -0.215090
 H        -4.078400        -1.125578        -0.967346
 H        -2.620934        -2.139095        -1.126990
 H        -3.055046        -1.633941         0.465292
 H        -1.591567         1.557533        -2.123895
 H        -1.757630        -0.157763        -2.664781
 H        -4.515600         2.659801        -3.169512
