19
Iteration:   577
 C         1.516761        -0.104367         0.304377
 C         0.069944        -0.094094         0.006518
 C        -1.124626         0.152557         0.112593
 C        -2.562589        -0.078284        -0.132852
 C        -3.152259        -1.518848        -0.034549
 C        -2.945651         0.499666        -1.541402
 O        -2.563610         1.830046        -1.578019
 C        -3.100331         2.643478        -2.469473
 O        -3.774763         2.374458        -3.421246
 H         2.256298        -0.389695        -0.549882
 H         1.680903         0.971398         0.505698
 H         1.688132        -0.740660         1.144539
 H        -3.108549         0.452852         0.725701
 H        -2.734838        -2.099212         0.789909
 H        -4.173122        -1.316522         0.254642
 H        -2.988870        -2.119650        -0.928068
 H        -2.270134         0.067913        -2.238299
 H        -3.936486         0.410073        -1.991245
 H        -2.636678         3.721711        -2.315808
