19
Iteration:  2083
 C         1.203190         0.845346         0.048773
 C        -0.223436         0.420882        -0.013250
 C        -1.326023        -0.008487        -0.272809
 C        -2.728684        -0.378542        -0.331120
 C        -2.997913        -1.912921        -0.749689
 C        -3.579266         0.460295        -1.430594
 O        -3.630819         1.922452        -1.303093
 C        -2.569480         2.483806        -1.978623
 O        -1.924763         1.935487        -2.854619
 H         1.811841         0.503813        -0.844382
 H         1.218005         1.936104         0.404721
 H         1.633564         0.386596         0.884465
 H        -3.104218        -0.240105         0.669269
 H        -2.046713        -2.385747        -1.155849
 H        -3.341779        -2.341072         0.212343
 H        -3.765157        -2.052903        -1.550501
 H        -3.194301         0.156910        -2.453527
 H        -4.581113         0.086145        -1.218670
 H        -2.282095         3.520797        -1.320267
