19
Iteration:  4987charge 0 multiplicity 1
 C         1.243928         0.106639         1.006054
 C        -0.103208        -0.138585         0.550071
 C        -1.079325        -0.344925        -0.140298
 C        -2.457110        -0.059663        -0.655152
 C        -3.253246        -1.333186        -0.762742
 C        -2.145473         0.557147        -2.052509
 O        -3.301064         1.160977        -2.678203
 C        -3.637427         2.433987        -2.356249
 O        -2.932346         3.196169        -1.692800
 H         1.831933        -0.677613         0.540294
 H         1.596064         1.004541         0.390520
 H         1.559804         0.290927         2.065120
 H        -2.844941         0.624014         0.183076
 H        -4.293234        -1.103305        -0.901332
 H        -2.948917        -1.905819        -1.725572
 H        -3.304485        -2.011591         0.111359
 H        -1.325065         1.241549        -2.056933
 H        -1.835074        -0.202408        -2.762868
 H        -4.739389         2.595898        -2.601700
