19
Iteration:  1741
 C         1.488608        -0.160250         0.914701
 C         0.058844        -0.007810         0.467402
 C        -1.031565        -0.014926        -0.092129
 C        -2.462115        -0.172077        -0.447859
 C        -2.923627        -1.790707        -0.390921
 C        -2.813241         0.517733        -1.792671
 O        -2.668416         2.032832        -1.588114
 C        -3.270048         2.846475        -2.458908
 O        -3.981030         2.442581        -3.360324
 H         1.747571        -1.237500         0.627003
 H         2.196136         0.619793         0.444476
 H         1.521874        -0.030588         1.983760
 H        -2.998864         0.519245         0.247514
 H        -3.942416        -1.980768         0.060122
 H        -2.794420        -1.967416        -1.438403
 H        -2.218551        -2.275343         0.297455
 H        -2.045636         0.244901        -2.512192
 H        -3.791021         0.216679        -2.163105
 H        -3.078509         3.905336        -2.412901
