19
Iteration:  2347
 C         1.080331         0.748744         0.271113
 C        -0.258421         0.280999        -0.085072
 C        -1.356116        -0.173501        -0.180045
 C        -2.804678        -0.382717        -0.380499
 C        -3.175213        -1.928452        -0.532175
 C        -3.202723         0.327912        -1.659624
 O        -3.344782         1.743678        -1.258580
 C        -2.621942         2.621615        -1.985018
 O        -2.082616         2.416632        -3.065884
 H         0.789963         1.736551         0.565126
 H         1.593903         0.274590         1.167282
 H         1.771048         0.599760        -0.464011
 H        -3.438097         0.021405         0.438653
 H        -2.588771        -2.435377         0.218991
 H        -4.222729        -2.197737        -0.337103
 H        -2.949201        -2.253062        -1.570744
 H        -2.431819         0.272973        -2.398784
 H        -4.245957         0.082129        -2.001525
 H        -2.569054         3.624128        -1.440532
