19
Iteration:  1446
 C         1.076807         0.174919         1.171282
 C        -0.231898         0.202592         0.450046
 C        -1.106465         0.015636        -0.415407
 C        -2.445773        -0.100496        -0.843220
 C        -3.040808        -1.498959        -0.479139
 C        -2.634099         0.230038        -2.280926
 O        -2.261256         1.564388        -2.692632
 C        -3.021174         2.554899        -2.281242
 O        -3.996672         2.566862        -1.527557
 H         1.347460         0.158156         2.293793
 H         1.788323        -0.549962         0.643148
 H         1.552301         1.100774         0.865537
 H        -3.060856         0.660541        -0.312770
 H        -2.181037        -2.108971        -0.847980
 H        -3.199300        -1.412673         0.640900
 H        -3.973783        -1.793545        -1.072880
 H        -2.032794        -0.418063        -2.916708
 H        -3.673002         0.108363        -2.494846
 H        -2.820467         3.440688        -2.759294
