19
Iteration:  3666
 C         1.489079        -0.759594         0.829315
 C         0.132562        -0.317420         0.640714
 C        -1.004758        -0.111429         0.237355
 C        -2.320214         0.014835        -0.379046
 C        -2.772036        -1.278801        -1.043632
 C        -2.278472         1.138745        -1.429372
 O        -3.516071         2.032695        -1.317646
 C        -3.913153         2.528506        -2.533661
 O        -3.368069         2.404623        -3.604247
 H         1.726461        -1.014367         1.919835
 H         1.560563        -1.611570         0.201737
 H         1.997777         0.040271         0.374910
 H        -3.135206         0.304198         0.300978
 H        -3.334703        -0.989547        -1.922070
 H        -1.902123        -1.904959        -1.219034
 H        -3.456485        -1.823532        -0.429127
 H        -1.392326         1.799950        -1.117792
 H        -2.258366         0.863666        -2.499678
 H        -4.893893         2.997807        -2.351830
