19
Iteration:  3521charge 0 multiplicity 1
 C         1.231997        -0.217243         1.301250
 C         0.155997        -0.297931         0.312971
 C        -0.977885        -0.211036        -0.189365
 C        -2.376146        -0.240286        -0.674896
 C        -3.000674        -1.579275        -0.717454
 C        -2.387068         0.743436        -1.843650
 O        -2.874518         1.957639        -1.334109
 C        -3.498091         2.764031        -2.268706
 O        -3.810330         2.657549        -3.456610
 H         1.760256        -1.215541         1.306207
 H         1.928019         0.474872         0.954082
 H         0.841759        -0.050573         2.345588
 H        -2.947250         0.315129         0.066102
 H        -3.897774        -1.360095        -1.318034
 H        -2.419580        -2.335463        -1.181268
 H        -3.404113        -1.804503         0.282540
 H        -1.335662         0.750517        -2.068110
 H        -3.010462         0.394544        -2.758861
 H        -3.563883         3.686140        -1.667893
