19
Iteration:   399charge 0 multiplicity 1
 C         1.419261         0.165653        -0.163660
 C        -0.014466        -0.017491        -0.029728
 C        -1.191616         0.162123        -0.151989
 C        -2.632256        -0.109162        -0.083847
 C        -3.104005        -1.593949         0.003538
 C        -3.549181         0.614722        -1.191173
 O        -3.050158         1.978449        -1.228413
 C        -2.682521         2.499478        -2.440946
 O        -2.860437         1.999443        -3.517609
 H         1.638686         0.994251         0.621818
 H         2.027577        -0.751487        -0.148502
 H         1.670827         0.624616        -1.099145
 H        -3.000705         0.321319         0.927621
 H        -2.312672        -2.188719         0.442116
 H        -3.984546        -1.563179         0.664970
 H        -3.425716        -1.998079        -0.959084
 H        -3.514208         0.220665        -2.250313
 H        -4.586751         0.776930        -0.900226
 H        -2.091967         3.482363        -2.311092
