19
Iteration:   497
 C         1.509225         0.049441         0.016906
 C         0.048073        -0.064120         0.135346
 C        -1.177608        -0.061113        -0.040013
 C        -2.608156        -0.078977        -0.079019
 C        -3.186432        -1.562066         0.035595
 C        -3.077013         0.539472        -1.392891
 O        -2.821693         1.949288        -1.329981
 C        -2.938137         2.648122        -2.515350
 O        -3.388385         2.225097        -3.538725
 H         1.502854         1.023637        -0.703189
 H         2.169689         0.319354         0.903762
 H         1.939548        -0.776379        -0.466754
 H        -3.003309         0.494877         0.810497
 H        -3.275667        -1.634303         1.107315
 H        -4.082306        -1.772528        -0.562917
 H        -2.491586        -2.289807        -0.366964
 H        -2.485505         0.153251        -2.272259
 H        -4.137078         0.459231        -1.679741
 H        -2.831919         3.808689        -2.436429
