19
Iteration:  1518charge 0 multiplicity 1
 C         1.222661        -0.011796         1.085595
 C        -0.014413         0.161729         0.389753
 C        -1.105072         0.016217        -0.087537
 C        -2.489676        -0.050688        -0.674810
 C        -3.048733        -1.440427        -0.556502
 C        -2.495166         0.283077        -2.147498
 O        -2.209145         1.669472        -2.434201
 C        -3.167969         2.636069        -2.330723
 O        -4.298315         2.475487        -2.060855
 H         1.399448         0.810907         1.724096
 H         1.311331        -0.945761         1.606599
 H         2.043002         0.032501         0.275675
 H        -3.260867         0.593612        -0.232041
 H        -3.953022        -1.554516        -1.100602
 H        -2.152754        -1.973770        -0.911680
 H        -3.249134        -1.647642         0.488249
 H        -1.765905        -0.384835        -2.656664
 H        -3.532724         0.127821        -2.561813
 H        -2.766535         3.724084        -2.482478
