19
Iteration:  2241
 C         0.835005         1.032012        -0.116065
 C        -0.444367         0.343470        -0.164643
 C        -1.467278        -0.234760        -0.021061
 C        -2.897033        -0.512474        -0.313778
 C        -3.144990        -2.054669        -0.630818
 C        -3.321506         0.393149        -1.533848
 O        -3.238898         1.815451        -1.238418
 C        -2.368611         2.616688        -1.899440
 O        -1.796908         2.241175        -2.881702
 H         1.336417         1.143917         0.826758
 H         1.541122         0.613838        -0.738760
 H         0.772089         2.141657        -0.176968
 H        -3.591435        -0.165737         0.437089
 H        -3.935180        -2.564795        -0.053570
 H        -3.226163        -2.294154        -1.693460
 H        -2.275975        -2.588449        -0.223466
 H        -2.778646         0.223811        -2.420429
 H        -4.374914         0.152286        -1.738753
 H        -2.373150         3.650430        -1.755472
