19
Iteration:  4165charge 0 multiplicity 1
 C         1.223975        -1.169511         1.100358
 C         0.239801        -0.370437         0.506091
 C        -0.806399         0.093273         0.118115
 C        -2.105230         0.284583        -0.413254
 C        -2.470330        -1.027529        -1.245398
 C        -2.269498         1.579257        -1.201260
 O        -3.699675         2.000272        -1.343001
 C        -4.165660         2.228879        -2.647057
 O        -3.450973         2.100613        -3.611714
 H         0.951779        -1.331945         2.091418
 H         1.091693        -2.140133         0.542109
 H         2.275047        -0.824123         1.292068
 H        -2.691379         0.228039         0.478603
 H        -1.828774        -1.009237        -2.071859
 H        -2.139645        -1.780921        -0.477927
 H        -3.526396        -0.867981        -1.369430
 H        -1.825420         2.536092        -0.688064
 H        -1.833836         1.601119        -2.191552
 H        -5.068451         2.781118        -2.586249
