19
Iteration:  4136charge 0 multiplicity 1
 C         1.384759        -1.150859         1.057699
 C         0.221180        -0.355461         0.527723
 C        -0.852736         0.130774         0.181569
 C        -2.252665         0.275996        -0.318976
 C        -2.541187        -1.053209        -1.295712
 C        -2.260733         1.583165        -1.140413
 O        -3.630729         1.976636        -1.372534
 C        -4.058109         2.324637        -2.621513
 O        -3.522417         2.020554        -3.673288
 H         0.842756        -1.741464         1.904229
 H         1.668054        -1.876941         0.329910
 H         2.332293        -0.578051         1.338419
 H        -2.971257         0.283102         0.559198
 H        -1.469553        -1.321963        -1.448542
 H        -3.174083        -1.852095        -0.852629
 H        -3.229935        -0.733147        -2.180732
 H        -1.879123         2.435940        -0.616312
 H        -1.686985         1.508652        -2.049533
 H        -4.914624         3.087128        -2.577591
