19
Iteration:   732
 C         1.461965        -0.280705         0.578618
 C         0.100244         0.014399         0.434297
 C        -1.052865         0.104036         0.004035
 C        -2.404953        -0.065737        -0.502808
 C        -3.037100        -1.349511        -0.067605
 C        -2.771195         0.464296        -1.829889
 O        -2.422406         1.803626        -1.885799
 C        -3.183216         2.678674        -2.524145
 O        -4.258222         2.409203        -2.979223
 H         1.606283        -0.666182         1.714628
 H         1.705214        -1.126286        -0.108545
 H         2.302106         0.367254         0.336735
 H        -2.954330         0.753439        -0.024800
 H        -2.452767        -1.686334         0.783846
 H        -4.063839        -1.439655         0.155354
 H        -3.038406        -2.078175        -0.888996
 H        -2.342437         0.007324        -2.689016
 H        -3.836212         0.382111        -1.916032
 H        -2.621266         3.533916        -2.277181
