19
Iteration:  3048
 C         1.360557        -0.192554         1.102608
 C         0.107599        -0.309272         0.370424
 C        -1.035510        -0.242791        -0.075296
 C        -2.435226        -0.231857        -0.497129
 C        -2.792187        -1.688489        -0.880788
 C        -2.918772         0.719254        -1.671220
 O        -2.968541         2.061012        -1.288154
 C        -3.431549         2.873655        -2.343747
 O        -3.467747         2.590274        -3.531263
 H         1.798248        -1.130180         1.591414
 H         2.030026         0.391423         0.483561
 H         0.869968         0.472462         1.935455
 H        -3.100829         0.210783         0.282649
 H        -3.878223        -1.932008        -0.989510
 H        -2.211411        -2.077485        -1.752775
 H        -2.354620        -2.148351         0.064502
 H        -2.081034         0.720831        -2.394914
 H        -3.899657         0.369205        -1.952782
 H        -3.672641         3.807520        -1.861059
