19
Iteration:   224
 C         1.136140         0.485592        -0.941891
 C        -0.316942         0.437204        -0.415866
 C        -1.482444         0.131283        -0.171584
 C        -2.934279        -0.041983         0.032660
 C        -3.299256        -1.529978         0.242457
 C        -3.497947         0.419878        -1.232831
 O        -3.203257         1.744045        -1.210613
 C        -2.502564         2.408576        -2.202889
 O        -1.767667         1.787115        -2.949756
 H         1.380745        -0.447092        -1.499663
 H         1.340602         1.269042        -1.801511
 H         1.731235         0.699022         0.033072
 H        -3.270372         0.438338         0.905474
 H        -2.430393        -1.917739         0.865092
 H        -4.165008        -1.522659         0.977920
 H        -3.472566        -2.218378        -0.637627
 H        -2.905551        -0.062324        -2.105026
 H        -4.595415         0.276204        -1.438177
 H        -2.494266         3.474458        -2.075070
