19
Iteration:  1577charge 0 multiplicity 1
 C         1.306362         0.014372         0.909965
 C        -0.025471        -0.116761         0.413424
 C        -1.162916        -0.052383         0.011358
 C        -2.570534         0.000984        -0.598559
 C        -3.033055        -1.446439        -0.483254
 C        -2.442868         0.460894        -2.055984
 O        -2.083717         1.869899        -2.145448
 C        -3.261041         2.657755        -2.278775
 O        -4.383468         2.305935        -2.549389
 H         1.846161         0.995772         0.662882
 H         1.515992        -0.213016         1.978002
 H         1.915290        -0.695617         0.416033
 H        -3.300532         0.594407         0.056631
 H        -3.683117        -1.582162         0.429005
 H        -3.835433        -1.691710        -1.180101
 H        -2.221993        -2.212213        -0.512692
 H        -1.597408        -0.048988        -2.514477
 H        -3.330741         0.299639        -2.630044
 H        -2.788467         3.748945        -2.243346
