19
Iteration:  2869
 C         1.381561        -0.172670         0.938105
 C        -0.045157         0.025879         0.493400
 C        -1.264197        -0.096494         0.123287
 C        -2.550352        -0.292032        -0.483694
 C        -2.798422        -1.763994        -0.801096
 C        -2.748199         0.564337        -1.803036
 O        -2.903283         1.923150        -1.356828
 C        -3.158570         2.837120        -2.324806
 O        -3.599136         2.694911        -3.452880
 H         1.942715         0.437065         0.239630
 H         1.532647         0.008789         2.100353
 H         1.780850        -1.171759         0.739244
 H        -3.350917         0.023080         0.221275
 H        -3.836093        -1.995683        -1.135127
 H        -2.209100        -2.057816        -1.687733
 H        -2.660419        -2.504361        -0.043287
 H        -1.883198         0.417404        -2.426100
 H        -3.617137         0.223314        -2.457679
 H        -2.694015         3.755803        -1.934314
