19
Iteration:  3646
 C         1.483112        -0.662073         0.866664
 C         0.070346        -0.304223         0.469347
 C        -1.099482        -0.089171         0.224580
 C        -2.419366         0.001365        -0.310288
 C        -2.776667        -1.401607        -1.028173
 C        -2.287489         1.130677        -1.458949
 O        -3.338704         1.992369        -1.339715
 C        -3.827279         2.589650        -2.484124
 O        -3.455893         2.444872        -3.616091
 H         1.285416        -1.110172         1.912511
 H         1.956165        -1.568638         0.318186
 H         2.223286         0.170175         0.851555
 H        -3.178948         0.295433         0.476330
 H        -3.473182        -1.301701        -1.835320
 H        -1.756965        -1.773956        -1.264840
 H        -3.064913        -2.166742        -0.322285
 H        -1.295860         1.666409        -1.400082
 H        -2.296035         0.575552        -2.349838
 H        -4.646525         3.283655        -2.082176
