19
Iteration:  3756charge 0 multiplicity 1
 C         1.473085        -0.916594         0.967442
 C         0.287254        -0.533346         0.271329
 C        -0.862640        -0.224017         0.048376
 C        -2.170622         0.264318        -0.248241
 C        -3.004921        -0.829568        -1.038594
 C        -2.343302         1.673223        -0.996685
 O        -3.699503         1.766917        -1.419567
 C        -3.944561         1.952076        -2.766677
 O        -3.210558         2.479278        -3.586220
 H         1.873368        -0.088708         1.665530
 H         1.268033        -1.956225         1.414247
 H         2.351875        -1.089034         0.250412
 H        -2.685069         0.306565         0.762771
 H        -3.892444        -0.918013        -0.455293
 H        -3.188411        -0.757428        -2.143495
 H        -2.717738        -1.886148        -0.845703
 H        -2.268834         2.553751        -0.247869
 H        -1.603579         1.729055        -1.776774
 H        -5.020943         1.761232        -3.024690
