19
Iteration:  4447charge 0 multiplicity 1
 C         1.477498        -0.259328         1.223452
 C         0.214598        -0.251022         0.318712
 C        -0.955073        -0.449232        -0.013350
 C        -2.344841        -0.193216        -0.430362
 C        -3.172800        -1.159719        -1.261677
 C        -2.216281         1.108283        -1.337161
 O        -3.632272         1.672473        -1.421949
 C        -3.871202         2.423846        -2.473563
 O        -3.049801         2.651061        -3.351011
 H         2.269864        -0.928320         0.709447
 H         1.852755         0.783438         1.427218
 H         1.387955        -0.711180         2.166776
 H        -2.888933         0.059033         0.465694
 H        -3.743284        -0.697592        -2.091747
 H        -2.583737        -1.991024        -1.842760
 H        -3.885458        -1.813457        -0.729207
 H        -1.524897         1.916025        -0.976448
 H        -1.897607         0.957422        -2.323881
 H        -4.886000         2.836859        -2.388587
