19
Iteration:  2753charge 0 multiplicity 1
 C         1.147442         0.374496         0.927171
 C        -0.057101         0.080677         0.241458
 C        -1.155556        -0.304170        -0.182644
 C        -2.574190        -0.487892        -0.440375
 C        -3.002949        -1.894324        -1.044590
 C        -3.225537         0.541690        -1.402493
 O        -2.721114         1.914905        -1.234136
 C        -2.646562         2.721551        -2.366392
 O        -3.399305         2.638465        -3.322396
 H         1.093713         1.227944         1.661859
 H         1.542712        -0.552507         1.429650
 H         1.898879         0.719005         0.091569
 H        -2.953234        -0.301260         0.571411
 H        -4.027322        -1.759079        -1.440179
 H        -2.294487        -2.150611        -1.806001
 H        -3.044282        -2.458362        -0.163319
 H        -3.142341         0.190506        -2.480046
 H        -4.280368         0.557739        -1.265402
 H        -1.905960         3.524814        -2.116153
