19
Iteration:  3101
 C         1.266389        -0.159727         0.980600
 C        -0.133376         0.142739         0.462332
 C        -1.188103        -0.017900        -0.120183
 C        -2.518839        -0.357158        -0.543820
 C        -2.704320        -1.890704        -0.744892
 C        -2.877728         0.462965        -1.852127
 O        -2.834279         1.867307        -1.360288
 C        -3.084104         2.848314        -2.244518
 O        -3.608723         2.809594        -3.346241
 H         1.123034        -1.088240         1.587118
 H         1.850155        -0.397906         0.001973
 H         2.023477         0.439798         1.549033
 H        -3.272588         0.117847         0.153028
 H        -3.677548        -1.997429        -1.201223
 H        -1.897316        -2.256314        -1.327619
 H        -2.786049        -2.288091         0.273345
 H        -2.077715         0.503522        -2.665430
 H        -3.866242         0.259959        -2.203413
 H        -2.680857         3.785915        -1.748346
