19
Iteration:  2655charge 0 multiplicity 1
 C         0.995734         0.472087         0.213737
 C        -0.390149         0.109716         0.283075
 C        -1.506901        -0.198770         0.315742
 C        -2.756688        -0.523419        -0.372464
 C        -2.937041        -2.069330        -0.795224
 C        -2.714703         0.423210        -1.706962
 O        -2.747744         1.826367        -1.230482
 C        -2.798857         2.812973        -2.076479
 O        -2.998368         2.726019        -3.259582
 H         1.775401         0.419670         0.966788
 H         1.438404        -0.053956        -0.667408
 H         1.009026         1.517480         0.136576
 H        -3.658277        -0.202843         0.136137
 H        -3.855778        -1.918308        -1.318490
 H        -2.125728        -2.149988        -1.425299
 H        -3.014571        -2.575131         0.085357
 H        -1.676136         0.179824        -2.055261
 H        -3.417186         0.167642        -2.454822
 H        -2.449388         3.695713        -1.515875
