19
Iteration:  1015charge 0 multiplicity 1
 C         1.212772         0.164177         0.832805
 C        -0.139142         0.051979         0.482031
 C        -1.167437         0.045743        -0.210250
 C        -2.559778        -0.058524        -0.619832
 C        -2.985149        -1.641124        -0.318693
 C        -2.753709         0.239821        -2.188172
 O        -2.289489         1.529935        -2.752323
 C        -3.046063         2.717175        -2.430496
 O        -3.952471         2.699257        -1.641771
 H         1.497787        -0.816963         1.314536
 H         1.944097         0.291590        -0.002608
 H         1.398983         1.040952         1.671079
 H        -3.265242         0.680804        -0.175132
 H        -3.725321        -1.706506         0.467850
 H        -3.256514        -2.105425        -1.276969
 H        -2.062292        -2.096838         0.106833
 H        -2.210416        -0.582276        -2.657175
 H        -3.793516         0.073039        -2.365747
 H        -2.615982         3.559873        -2.976306
