19
Iteration:  1173
 C         0.994842         0.864434         0.558288
 C        -0.385427         0.366112         0.033203
 C        -1.451165        -0.174639        -0.092425
 C        -2.757040        -0.338913        -0.630791
 C        -3.294120        -1.751455        -0.685180
 C        -2.727414         0.107612        -2.182103
 O        -2.094017         1.359173        -2.563831
 C        -2.510837         2.543800        -1.976420
 O        -3.543505         2.693120        -1.352131
 H         0.903597         2.060184         0.421777
 H         1.354963         0.631172         1.660426
 H         1.796509         0.511624        -0.086050
 H        -3.349219         0.333008        -0.011832
 H        -2.564006        -2.320137        -0.078583
 H        -4.299701        -1.869564        -0.158365
 H        -3.525078        -2.288738        -1.643797
 H        -2.077040        -0.578152        -2.744733
 H        -3.767958         0.060276        -2.556832
 H        -1.901218         3.442309        -2.055238
