19
Iteration:  3255charge 0 multiplicity 1
 C         1.015724         0.560977         0.854573
 C        -0.107858        -0.049002         0.283251
 C        -1.242526        -0.370977        -0.080967
 C        -2.583025        -0.412463        -0.596230
 C        -3.251523        -1.763318        -0.929963
 C        -2.742747         0.334498        -1.874609
 O        -2.239883         1.793776        -1.450000
 C        -2.890968         2.826592        -2.038848
 O        -3.600851         2.574681        -2.990199
 H         0.740048         1.468261         1.414876
 H         1.531965         0.127546         1.789109
 H         1.732230         1.040069         0.194561
 H        -3.279522         0.166536         0.087060
 H        -4.195842        -1.582525        -1.409652
 H        -2.600722        -2.332975        -1.611632
 H        -3.273728        -2.352974        -0.025042
 H        -2.093056        -0.050532        -2.743038
 H        -3.755158         0.502495        -2.244765
 H        -2.921021         3.824062        -1.445197
