19
Iteration:  3920charge 0 multiplicity 1
 C         1.468532        -0.503599         0.429784
 C        -0.005963        -0.403106         0.548614
 C        -1.208925        -0.242400         0.357918
 C        -2.508482         0.190080        -0.270001
 C        -2.973854        -0.920300        -1.405039
 C        -2.151363         1.461762        -0.891799
 O        -3.517210         1.995181        -1.215978
 C        -3.750149         2.070724        -2.562679
 O        -3.041964         1.930738        -3.534754
 H         1.844887        -0.420381        -0.637895
 H         2.019523         0.162838         1.118891
 H         1.900340        -1.375661         0.830657
 H        -3.319888         0.311124         0.395282
 H        -3.277591        -0.157895        -2.174977
 H        -2.035423        -1.447481        -1.675309
 H        -3.933502        -1.484598        -1.185023
 H        -1.595793         2.317209        -0.343547
 H        -1.567680         1.191810        -1.858773
 H        -4.761780         2.459546        -2.559408
