19
Iteration:  2560charge 0 multiplicity 1
 C         1.253470         0.449014         0.620093
 C        -0.050155         0.068272         0.059301
 C        -1.247595        -0.247217        -0.181904
 C        -2.606720        -0.403202        -0.452146
 C        -3.038865        -1.878862        -0.678200
 C        -3.121007         0.415164        -1.625630
 O        -3.315282         1.876083        -1.255213
 C        -2.919758         2.782590        -2.100844
 O        -2.674620         2.567276        -3.254141
 H         2.082500        -0.221179         0.696465
 H         1.872663         1.210406         0.196342
 H         1.061729         0.696435         1.627223
 H        -3.210909        -0.110488         0.421960
 H        -4.126432        -1.932558        -0.853959
 H        -2.458300        -2.185888        -1.605059
 H        -2.762712        -2.448679         0.246676
 H        -2.406760         0.253196        -2.461547
 H        -4.059338        -0.081293        -1.820372
 H        -2.600889         3.732633        -1.623292
