19
Iteration:    21charge 0 multiplicity 1
 C         1.254747         0.364416        -0.515638
 C        -0.136578         0.200057        -0.181430
 C        -1.359810        -0.030462        -0.127210
 C        -2.809541        -0.038898         0.066022
 C        -3.046757        -1.565560         0.277528
 C        -3.563602         0.509120        -1.199597
 O        -3.422985         2.051939        -1.325690
 C        -2.489442         2.444451        -2.399039
 O        -2.226279         1.795236        -3.375899
 H         1.782966         1.436643        -0.296294
 H         1.845484        -0.326934        -0.051441
 H         1.420794         0.341337        -1.555299
 H        -3.055009         0.596695         0.967711
 H        -2.240264        -1.980352         0.872383
 H        -3.965296        -1.840972         0.769330
 H        -3.008940        -2.047200        -0.691042
 H        -3.097004         0.113662        -2.123350
 H        -4.614323         0.381298        -1.185168
 H        -2.074956         3.391970        -2.167086
