19
Iteration:  4737
 C         1.495909        -0.528642         1.104699
 C         0.137205        -0.486510         0.570838
 C        -1.013454        -0.127774         0.203949
 C        -2.230560         0.113840        -0.501764
 C        -3.290890        -1.060305        -0.718214
 C        -1.957170         0.923602        -1.795295
 O        -3.281110         1.062683        -2.475474
 C        -3.872750         2.268957        -2.670273
 O        -3.550836         3.418547        -2.380305
 H         1.817575         0.437239         1.509432
 H         1.811973        -1.409833         1.664073
 H         2.072359        -0.693388         0.089238
 H        -2.775072         0.760042         0.139260
 H        -4.070501        -0.792254        -1.339275
 H        -2.723957        -1.922752        -1.204236
 H        -3.508780        -1.485393         0.263901
 H        -1.646357         2.001767        -1.625662
 H        -1.353756         0.334032        -2.540616
 H        -4.769087         2.066144        -3.225593
