19
Iteration:   977charge 0 multiplicity 1
 C         1.350106         0.054797         0.901111
 C         0.024630         0.108723         0.237828
 C        -1.132780         0.084147        -0.085606
 C        -2.476463         0.082413        -0.606921
 C        -3.115700        -1.445044        -0.446379
 C        -2.744142         0.154007        -2.089090
 O        -2.273154         1.479638        -2.551270
 C        -3.070322         2.579785        -2.371168
 O        -4.157849         2.677537        -1.866923
 H         1.757764        -0.958126         0.933532
 H         2.140137         0.808507         0.732508
 H         1.026723         0.171850         2.016306
 H        -3.062819         0.804962        -0.010685
 H        -3.904840        -1.716315         0.279134
 H        -3.609184        -1.749347        -1.384230
 H        -2.307955        -2.144164        -0.339432
 H        -2.178495        -0.484451        -2.781086
 H        -3.860921         0.118413        -2.297027
 H        -2.351122         3.443476        -2.569329
