19
Iteration:  4698
 C         1.442117        -0.674653         1.098480
 C         0.246070        -0.342627         0.459362
 C        -0.868104        -0.341087         0.015557
 C        -2.231056         0.131974        -0.323857
 C        -3.178472        -1.016949        -0.723544
 C        -2.151625         1.105619        -1.503041
 O        -3.291011         1.060757        -2.379423
 C        -3.952738         2.259979        -2.807360
 O        -3.539215         3.399283        -2.592683
 H         1.730734        -0.184608         2.086122
 H         1.563371        -1.736227         1.379992
 H         2.100223        -0.270877         0.400358
 H        -2.561430         0.677598         0.641776
 H        -3.820628        -0.847496        -1.650916
 H        -2.750849        -2.026455        -0.908700
 H        -3.899773        -1.258109         0.104747
 H        -1.974735         2.164890        -1.104879
 H        -1.244113         0.982085        -2.096141
 H        -4.767341         1.903697        -3.533375
