19
Iteration:  3944charge 0 multiplicity 1
 C         1.478403        -0.418163         0.611855
 C         0.070711        -0.416906         0.335994
 C        -1.146493        -0.375160         0.213686
 C        -2.503419         0.049298        -0.318833
 C        -3.046793        -0.929523        -1.333189
 C        -2.272006         1.405490        -0.861813
 O        -3.420718         2.144831        -1.293275
 C        -3.754990         2.252772        -2.553419
 O        -3.069939         1.820716        -3.481193
 H         1.959351        -0.571049        -0.315776
 H         1.797713         0.588114         1.086827
 H         1.931826        -1.071449         1.360897
 H        -3.239567         0.157569         0.478374
 H        -3.587971        -0.231327        -2.053055
 H        -2.150951        -1.375788        -1.690684
 H        -3.815429        -1.577628        -0.865354
 H        -1.930701         2.066331        -0.088389
 H        -1.459308         1.372422        -1.711579
 H        -4.790581         2.587329        -2.573840
