19
Iteration:  1152
 C         0.933081         0.795032         0.506023
 C        -0.359349         0.345205         0.254369
 C        -1.355389        -0.110881        -0.281573
 C        -2.729645        -0.242572        -0.797494
 C        -3.261985        -1.713034        -0.520362
 C        -2.770382         0.140150        -2.250709
 O        -2.040806         1.382795        -2.497899
 C        -2.613366         2.480682        -2.035466
 O        -3.563804         2.612412        -1.295659
 H         0.926628         1.868473         0.996863
 H         1.232885         0.147725         1.443268
 H         1.697891         0.621471        -0.202203
 H        -3.298876         0.550543        -0.291220
 H        -2.640589        -2.143407         0.301377
 H        -4.374753        -1.693159        -0.276382
 H        -3.300702        -2.427256        -1.420355
 H        -2.156305        -0.525183        -2.899103
 H        -3.810721         0.224110        -2.676657
 H        -1.918683         3.339784        -2.386929
