19
Iteration:  1330
 C         0.980586         0.696033         0.724806
 C        -0.298324         0.325088         0.266960
 C        -1.420934        -0.024618        -0.152908
 C        -2.688825        -0.343033        -0.814151
 C        -3.155623        -1.819504        -0.619201
 C        -2.817773         0.137636        -2.243861
 O        -2.140558         1.506088        -2.633589
 C        -2.590987         2.553200        -2.047725
 O        -3.611482         2.662381        -1.361636
 H         1.614072        -0.190198         0.592054
 H         1.541193         1.540829         0.280895
 H         1.071229         0.887072         1.826115
 H        -3.396876         0.296625        -0.284989
 H        -4.228387        -1.915797        -0.457323
 H        -2.861173        -2.471729        -1.418092
 H        -2.704673        -2.029209         0.326209
 H        -2.386018        -0.477114        -3.053462
 H        -3.917766         0.292920        -2.416355
 H        -2.002644         3.302560        -2.454785
