19
Iteration:  2578
 C         1.223796         0.506801         0.553003
 C        -0.062249         0.069386         0.082207
 C        -1.215445        -0.274585        -0.049384
 C        -2.676232        -0.472428        -0.425660
 C        -3.103549        -1.989649        -0.695712
 C        -3.032616         0.498933        -1.673352
 O        -3.225227         1.832559        -1.155040
 C        -2.886937         2.812970        -2.128071
 O        -2.703787         2.606635        -3.316299
 H         1.925652        -0.412958         0.710641
 H         1.569021         1.222821        -0.362539
 H         1.260898         1.116197         1.484429
 H        -3.343128        -0.134802         0.411741
 H        -4.043800        -1.893758        -1.260157
 H        -2.289333        -2.514402        -1.156713
 H        -3.192399        -2.511459         0.246414
 H        -2.122947         0.572606        -2.333655
 H        -3.967262         0.171490        -2.172437
 H        -3.102312         3.772053        -1.613178
