19
Iteration:   359charge 0 multiplicity 1
 C         1.296004         0.223888        -0.245983
 C        -0.078041         0.254465        -0.301224
 C        -1.243865        -0.065048        -0.142909
 C        -2.650360        -0.093741        -0.005682
 C        -3.118066        -1.536285         0.033933
 C        -3.480039         0.592935        -1.133587
 O        -3.182408         2.031860        -1.237164
 C        -2.598975         2.450039        -2.363077
 O        -2.616129         1.910779        -3.447094
 H         1.620138         0.203163         0.704143
 H         1.732572        -0.733561        -0.687477
 H         1.702589         1.162774        -0.786949
 H        -2.894244         0.361959         0.908314
 H        -2.553855        -2.219663         0.681886
 H        -4.199132        -1.482560         0.387753
 H        -3.234453        -2.002192        -0.952189
 H        -3.326706         0.071480        -2.060404
 H        -4.554910         0.449728        -0.842706
 H        -2.237475         3.417368        -2.144378
