19
Iteration:  1288charge 0 multiplicity 1
 C         0.989679         0.817181         0.548706
 C        -0.349155         0.317961         0.125026
 C        -1.513547         0.037953        -0.150053
 C        -2.743244        -0.303495        -0.761820
 C        -3.129947        -1.800401        -0.761978
 C        -2.856025         0.038184        -2.176054
 O        -2.084535         1.279622        -2.373454
 C        -2.507519         2.553594        -1.943326
 O        -3.565393         2.791997        -1.419140
 H         1.793580         0.465712        -0.038780
 H         0.906142         1.885411         0.644948
 H         1.006494         0.503842         1.661367
 H        -3.564746         0.255395        -0.232692
 H        -3.508318        -2.238931        -1.731751
 H        -2.268799        -2.470558        -0.547587
 H        -3.886683        -1.978822         0.010828
 H        -2.351035        -0.709801        -2.821931
 H        -3.941509         0.151182        -2.431525
 H        -1.672398         3.287166        -2.007614
