19
Iteration:  4691
 C         1.471112        -0.684061         1.082506
 C         0.233432        -0.368107         0.479345
 C        -0.878215        -0.313991        -0.019004
 C        -2.212846         0.146861        -0.288730
 C        -3.164599        -1.090709        -0.675232
 C        -2.182897         1.176560        -1.469288
 O        -3.308941         1.049488        -2.400134
 C        -3.895936         2.256918        -2.804016
 O        -3.547844         3.418178        -2.632568
 H         1.420431        -0.196944         2.036770
 H         1.497722        -1.819923         1.192575
 H         2.429897        -0.349022         0.537134
 H        -2.658928         0.630664         0.551932
 H        -3.700224        -0.772315        -1.622644
 H        -2.694315        -2.028317        -0.911885
 H        -3.921817        -1.334009         0.076171
 H        -2.250559         2.127702        -1.082396
 H        -1.350240         1.045388        -2.163534
 H        -4.735874         1.965752        -3.405536
