19
Iteration:  4032charge 0 multiplicity 1
 C         1.436220        -0.505200         0.993223
 C         0.194768        -0.336575         0.277205
 C        -0.987658        -0.409210        -0.041131
 C        -2.344220         0.051114        -0.473230
 C        -3.178923        -0.829388        -1.303430
 C        -2.150981         1.490534        -0.997715
 O        -3.444603         2.158023        -1.235498
 C        -3.835415         2.188540        -2.523648
 O        -3.223689         1.769327        -3.461806
 H         1.670473        -1.514300         0.854135
 H         2.256487         0.179656         0.595159
 H         1.259771        -0.264155         2.055055
 H        -2.930965         0.217281         0.403017
 H        -4.078335        -1.424528        -0.957591
 H        -3.752149        -0.324748        -2.077823
 H        -2.597356        -1.627887        -1.740347
 H        -1.720309         2.034996        -0.164296
 H        -1.524996         1.526051        -2.001134
 H        -4.723255         2.771263        -2.621217
