19
Iteration:  4633
 C         1.505883        -0.917807         0.954957
 C         0.166143        -0.484002         0.529077
 C        -0.948657        -0.020422         0.175287
 C        -2.359127         0.242450        -0.218763
 C        -2.788974        -1.211591        -0.683123
 C        -2.409192         1.229094        -1.338252
 O        -3.493028         1.131269        -2.267652
 C        -3.831526         2.262387        -2.997967
 O        -3.450023         3.397452        -2.831618
 H         1.606127        -1.182338         2.066373
 H         1.948827        -1.750269         0.311064
 H         2.163756        -0.092372         0.781032
 H        -3.131532         0.576957         0.522530
 H        -3.844785        -1.178987        -1.081441
 H        -1.967937        -1.436093        -1.418586
 H        -2.666976        -1.779097         0.285576
 H        -2.285341         2.250152        -0.916730
 H        -1.466477         1.175469        -1.841207
 H        -4.527182         1.994794        -3.821275
