19
Iteration:   379
 C         1.557327         0.243953        -0.195104
 C        -0.008852         0.034867        -0.183449
 C        -1.251729         0.113301        -0.170994
 C        -2.795605        -0.059993        -0.002851
 C        -3.165538        -1.616436         0.030535
 C        -3.559233         0.619011        -1.131896
 O        -3.159572         1.992233        -1.223684
 C        -2.601269         2.444004        -2.410167
 O        -2.726736         1.976527        -3.506704
 H         1.898209         0.597467         0.810397
 H         2.018472        -0.773033        -0.475459
 H         1.787011         1.005427        -1.086440
 H        -3.051184         0.476313         0.940774
 H        -2.265137        -2.092461         0.424005
 H        -4.141563        -1.897282         0.532115
 H        -3.348688        -1.940904        -1.004127
 H        -3.322701         0.145401        -2.123176
 H        -4.682316         0.532115        -1.004699
 H        -2.021622         3.327379        -2.200483
