19
Iteration:   401charge 0 multiplicity 1
 C         1.416397         0.170022        -0.158435
 C        -0.022390        -0.013821        -0.024221
 C        -1.210880         0.149470        -0.150688
 C        -2.621904        -0.115381        -0.089568
 C        -3.096834        -1.583078         0.003017
 C        -3.531396         0.611569        -1.191028
 O        -3.039894         1.981725        -1.227877
 C        -2.693781         2.517570        -2.451930
 O        -2.865897         1.997630        -3.514767
 H         1.641843         0.922944         0.611713
 H         2.045102        -0.790412        -0.059193
 H         1.665032         0.635394        -1.195376
 H        -2.961342         0.340033         0.876110
 H        -2.285889        -2.161907         0.441976
 H        -4.021618        -1.588895         0.651607
 H        -3.429311        -1.990239        -0.956626
 H        -3.531365         0.217622        -2.225441
 H        -4.603749         0.727615        -0.851951
 H        -2.102905         3.404810        -2.298137
