19
Iteration:  2925charge 0 multiplicity 1
 C         1.403201        -0.221068         0.834116
 C        -0.096741        -0.266274         0.547790
 C        -1.302960        -0.148770         0.239633
 C        -2.493996        -0.215956        -0.571589
 C        -2.765577        -1.787325        -0.652101
 C        -2.521892         0.646526        -1.853181
 O        -2.895719         2.063165        -1.441978
 C        -3.566307         2.842286        -2.289959
 O        -3.453294         2.739210        -3.488607
 H         1.833120        -0.204277        -0.151147
 H         1.788082         0.737005         1.284075
 H         1.599988        -1.213045         1.283170
 H        -3.313111         0.036044         0.113107
 H        -3.447085        -2.071933        -1.492223
 H        -1.763181        -2.175300        -0.706415
 H        -3.080513        -2.041898         0.329545
 H        -1.535675         0.559781        -2.363900
 H        -3.324095         0.222407        -2.432926
 H        -4.269543         3.372860        -1.669452
