19
Iteration:  4167charge 0 multiplicity 1
 C         1.226010        -1.171244         1.101872
 C         0.226150        -0.380640         0.509239
 C        -0.786746         0.091580         0.114922
 C        -2.111382         0.292435        -0.407688
 C        -2.470374        -1.044932        -1.243980
 C        -2.259258         1.599097        -1.214927
 O        -3.701302         2.000360        -1.347317
 C        -4.183490         2.214908        -2.652365
 O        -3.441575         2.108302        -3.599920
 H         1.002790        -1.304726         2.101651
 H         1.070937        -2.098802         0.609264
 H         2.300049        -0.866379         1.322298
 H        -2.702108         0.288979         0.501900
 H        -1.916348        -0.999233        -2.187747
 H        -2.070004        -1.770671        -0.517495
 H        -3.553874        -0.848645        -1.367481
 H        -1.816753         2.506097        -0.688578
 H        -1.860667         1.600752        -2.186036
 H        -5.104276         2.767491        -2.561972
