19
Iteration:  2627charge 0 multiplicity 1
 C         1.131426         0.526966         0.185418
 C        -0.301967         0.095464         0.394759
 C        -1.429258        -0.257182         0.237891
 C        -2.770016        -0.468230        -0.456272
 C        -3.041750        -1.940387        -0.805113
 C        -2.772543         0.410086        -1.678842
 O        -2.790975         1.744520        -1.180557
 C        -3.018811         2.704571        -2.081444
 O        -2.807671         2.746525        -3.288153
 H         1.866498         0.095904         0.884653
 H         1.376117         0.370983        -0.925858
 H         1.198324         1.619845         0.545166
 H        -3.637804        -0.055813         0.165181
 H        -3.765852        -1.879072        -1.629859
 H        -1.983105        -2.385181        -0.979028
 H        -3.498365        -2.318980         0.186251
 H        -1.874994         0.230859        -2.274413
 H        -3.752175         0.234674        -2.246536
 H        -3.119779         3.606469        -1.401930
