19
Iteration:    90charge 0 multiplicity 1
 C         1.096825         0.474363        -0.768406
 C        -0.296687         0.437826        -0.541211
 C        -1.386091         0.077167        -0.202543
 C        -2.775590        -0.083573         0.050520
 C        -3.207460        -1.553145         0.293009
 C        -3.495543         0.416819        -1.201303
 O        -3.397172         2.011082        -1.324028
 C        -2.508702         2.380919        -2.250714
 O        -1.828517         1.650302        -2.933475
 H         1.463653         1.195479        -1.400315
 H         1.638911         0.553548         0.208319
 H         1.433850        -0.448870        -1.274983
 H        -3.077062         0.516924         0.901692
 H        -2.789945        -2.007021         1.196535
 H        -4.314929        -1.605773         0.354419
 H        -2.906742        -2.183075        -0.564872
 H        -3.116614         0.045043        -2.125756
 H        -4.607760         0.293755        -1.074950
 H        -2.421706         3.470699        -2.279499
