19
Iteration:  3905
 C         1.449074        -0.587131         0.426345
 C        -0.001322        -0.379904         0.581867
 C        -1.207593        -0.262523         0.438115
 C        -2.443678         0.120329        -0.257366
 C        -2.883729        -0.813351        -1.345642
 C        -2.212927         1.536112        -0.981859
 O        -3.505024         1.950290        -1.314052
 C        -3.837822         2.117780        -2.588988
 O        -3.021784         1.970707        -3.481513
 H         1.640944        -0.223806        -0.648004
 H         2.085386         0.093068         0.953453
 H         1.742988        -1.679968         0.435474
 H        -3.257198         0.324730         0.500613
 H        -3.300496        -0.578792        -2.291051
 H        -2.114949        -1.621093        -1.442538
 H        -3.584343        -1.556381        -0.971109
 H        -1.836150         2.157902        -0.160113
 H        -1.571540         1.588234        -1.797835
 H        -4.952441         2.199466        -2.739949
