19
Iteration:  1104
 C         1.065424         0.565487         0.789486
 C        -0.193309         0.311951         0.106875
 C        -1.347490        -0.038955        -0.225379
 C        -2.707419        -0.154818        -0.754887
 C        -3.183869        -1.522851        -0.475875
 C        -2.787383         0.167692        -2.251836
 O        -2.202105         1.387898        -2.737051
 C        -2.667193         2.493908        -2.026036
 O        -3.693954         2.510503        -1.345826
 H         0.840548         1.160354         1.761276
 H         1.775248        -0.259414         0.958506
 H         1.679374         1.287674         0.060225
 H        -3.334744         0.571433        -0.212256
 H        -3.653974        -1.517165         0.534145
 H        -3.881759        -1.881236        -1.241879
 H        -2.423259        -2.287918        -0.554882
 H        -2.264954        -0.601521        -2.805510
 H        -3.813610         0.206079        -2.547221
 H        -1.941222         3.298161        -2.197857
