19
Iteration:   418
 C         1.387131         0.143159        -0.081209
 C        -0.040006         0.098648        -0.040470
 C        -1.244756        -0.095370        -0.185022
 C        -2.689985        -0.061719        -0.083538
 C        -3.066080        -1.559678        -0.001757
 C        -3.382673         0.627914        -1.165494
 O        -2.958408         2.027097        -1.234354
 C        -2.757186         2.532255        -2.468692
 O        -2.960918         2.002627        -3.528123
 H         1.871352         1.066828         0.355074
 H         1.739022        -0.831210         0.183678
 H         1.777965         0.177570        -1.065872
 H        -2.979709         0.424617         0.856971
 H        -2.260753        -2.078426         0.544886
 H        -3.993293        -1.755617         0.503384
 H        -3.015538        -1.969396        -1.022679
 H        -3.206446         0.162569        -2.158313
 H        -4.452892         0.678929        -0.924114
 H        -2.458633         3.651000        -2.400502
