19
Iteration:  3601
 C         1.445739        -0.450873         1.071666
 C         0.090231        -0.382043         0.559129
 C        -1.001286        -0.252861         0.076531
 C        -2.417894        -0.098174        -0.524862
 C        -2.913418        -1.526641        -0.891829
 C        -2.329533         1.013465        -1.686287
 O        -3.225495         2.059436        -1.350391
 C        -3.695105         2.744440        -2.381172
 O        -3.584875         2.485259        -3.577789
 H         1.817607        -1.222392         1.849167
 H         2.241182        -0.616654         0.321310
 H         1.792957         0.525387         1.353771
 H        -3.033591         0.407536         0.261364
 H        -4.001665        -1.567092        -0.802979
 H        -2.611604        -1.805796        -1.894059
 H        -2.465294        -2.279206        -0.301588
 H        -1.279833         1.433810        -1.635911
 H        -2.435565         0.579958        -2.658204
 H        -4.445120         3.498242        -1.961448
