19
Iteration:  4569charge 0 multiplicity 1
 C         1.340949        -0.861981         0.768309
 C         0.051568        -0.203461         0.700957
 C        -1.061594        -0.046770         0.334348
 C        -2.364170         0.173002        -0.288064
 C        -2.716320        -1.193836        -1.002400
 C        -2.187734         1.245011        -1.314363
 O        -3.556202         1.241584        -1.948823
 C        -3.943554         2.258308        -2.714725
 O        -3.182204         3.088211        -3.120252
 H         1.405145        -1.836198         1.328466
 H         1.763740        -0.708539        -0.299478
 H         2.066754        -0.170553         1.244962
 H        -3.027328         0.475060         0.502052
 H        -3.796469        -1.566849        -0.838800
 H        -2.534320        -1.101142        -2.096601
 H        -2.178864        -2.140880        -0.642007
 H        -2.158008         2.260955        -0.891315
 H        -1.364001         1.017595        -1.997448
 H        -5.029805         2.287092        -2.650685
