19
Iteration:  1254
 C         0.906283         0.890338         0.420301
 C        -0.435454         0.352193         0.202097
 C        -1.525943        -0.155416        -0.180352
 C        -2.833976        -0.388800        -0.761467
 C        -3.138230        -1.993511        -0.633232
 C        -2.869054         0.257167        -2.108891
 O        -1.958808         1.404665        -2.430211
 C        -2.411765         2.627302        -1.946578
 O        -3.542816         2.692046        -1.455875
 H         1.593997         1.077673        -0.378997
 H         0.880136         1.858873         0.935906
 H         1.465738         0.182233         1.108380
 H        -3.569309         0.136601        -0.114724
 H        -2.848567        -2.689486        -1.460457
 H        -2.709021        -2.202537         0.336468
 H        -4.235975        -2.057332        -0.500009
 H        -2.522746        -0.484638        -2.865263
 H        -3.941003         0.480648        -2.363459
 H        -1.590667         3.304698        -2.035707
