19
Iteration:  3840charge 0 multiplicity 1
 C         1.452138        -0.947336         0.636020
 C         0.179103        -0.369509         0.294276
 C        -0.977476         0.002560         0.258101
 C        -2.353570         0.162983        -0.147978
 C        -2.766998        -1.025047        -1.057741
 C        -2.434455         1.579957        -0.858622
 O        -3.862597         1.886626        -1.377002
 C        -3.835555         2.239327        -2.778277
 O        -2.970306         2.144518        -3.611453
 H         2.251242        -0.173040         0.335902
 H         1.508966        -1.025420         1.669852
 H         1.555405        -1.909574         0.063221
 H        -2.937056         0.153415         0.766325
 H        -3.849036        -1.047728        -1.234485
 H        -2.448815        -0.695164        -2.084317
 H        -2.261906        -1.923304        -0.635647
 H        -2.308355         2.468943        -0.142070
 H        -1.723751         1.627819        -1.668204
 H        -4.856257         2.532115        -3.043342
