19
Iteration:  4553
 C         1.480142        -0.724592         0.819350
 C         0.054854        -0.327485         0.653989
 C        -1.063242        -0.085591         0.332943
 C        -2.373038         0.081118        -0.305361
 C        -2.710674        -1.177646        -0.985078
 C        -2.320931         1.234867        -1.327055
 O        -3.637161         1.260541        -1.845513
 C        -3.895252         2.374394        -2.651460
 O        -3.138497         3.092324        -3.248554
 H         1.348700        -1.806857         1.031776
 H         1.999774        -0.896379        -0.067199
 H         2.040767        -0.281137         1.644483
 H        -3.271948         0.295685         0.355959
 H        -3.744081        -1.417961        -0.986134
 H        -2.396989        -1.191869        -2.063073
 H        -2.165188        -2.008837        -0.539427
 H        -2.040396         2.190145        -0.821682
 H        -1.681335         0.931037        -2.195513
 H        -4.979301         2.279405        -2.938065
