19
Iteration:  4028charge 0 multiplicity 1
 C         1.426667        -0.477848         0.977815
 C         0.188996        -0.317765         0.273156
 C        -0.994647        -0.407668        -0.058295
 C        -2.313332         0.033346        -0.484052
 C        -3.177111        -0.838308        -1.300248
 C        -2.196118         1.481662        -0.994894
 O        -3.454219         2.183047        -1.190537
 C        -3.806349         2.206224        -2.533068
 O        -3.206078         1.744763        -3.481156
 H         1.853633        -1.602613         0.932502
 H         2.186477         0.151113         0.591965
 H         1.179434        -0.397537         2.021735
 H        -2.978083         0.139067         0.411981
 H        -4.092425        -1.301744        -0.862544
 H        -3.752614        -0.407853        -2.104351
 H        -2.656757        -1.735066        -1.720767
 H        -1.666317         2.032257        -0.197991
 H        -1.567584         1.450258        -1.906108
 H        -4.705557         2.883028        -2.621938
