19
Iteration:   247
 C         1.114900         0.473510        -0.816345
 C        -0.194673         0.267986        -0.363432
 C        -1.347468         0.130902        -0.035255
 C        -2.796450        -0.133984         0.037047
 C        -3.278131        -1.577942         0.247660
 C        -3.584723         0.431624        -1.208736
 O        -3.379218         1.899708        -1.289684
 C        -2.390303         2.416943        -2.199292
 O        -1.875094         1.852645        -3.135122
 H         1.547695        -0.395177        -1.202528
 H         0.997605         0.950272        -1.893431
 H         1.771404         1.161868        -0.130003
 H        -3.180402         0.411587         0.843126
 H        -2.656341        -2.174249         0.979491
 H        -4.332879        -1.514653         0.688421
 H        -3.302110        -2.184257        -0.699380
 H        -3.273379         0.002965        -2.233709
 H        -4.686211         0.340550        -1.132532
 H        -2.278112         3.471984        -1.987038
