19
Iteration:  3718charge 0 multiplicity 1
 C         1.516441        -0.856796         0.865821
 C         0.185516        -0.544999         0.479413
 C        -0.885758        -0.136025         0.135237
 C        -2.255666         0.213707        -0.225603
 C        -2.899507        -0.977042        -1.066880
 C        -2.273666         1.467466        -1.083744
 O        -3.595285         1.791645        -1.492623
 C        -4.010808         2.224299        -2.652452
 O        -3.312607         2.435936        -3.618509
 H         1.598700        -0.431645         1.861714
 H         1.580379        -1.894417         1.080005
 H         2.251486        -0.511051         0.125073
 H        -2.910626         0.342983         0.618413
 H        -3.744898        -0.384092        -1.525925
 H        -2.246795        -1.398762        -1.822304
 H        -3.231390        -1.806969        -0.441110
 H        -1.771454         2.336011        -0.607365
 H        -1.691938         1.230447        -2.043408
 H        -5.063595         2.414182        -2.533806
