19
Iteration:  3757
 C         1.477763        -0.914876         0.975315
 C         0.285050        -0.530635         0.272525
 C        -0.860980        -0.219697         0.038830
 C        -2.170056         0.261859        -0.248973
 C        -3.011089        -0.832066        -1.040380
 C        -2.339088         1.682221        -0.992558
 O        -3.701344         1.768887        -1.419470
 C        -3.946369         1.946783        -2.773476
 O        -3.205414         2.476421        -3.576752
 H         1.874180        -0.106637         1.663117
 H         1.252184        -1.980761         1.431625
 H         2.323060        -1.105822         0.178271
 H        -2.661762         0.300816         0.790634
 H        -3.885531        -0.927443        -0.424947
 H        -3.199615        -0.756829        -2.136693
 H        -2.706784        -1.897389        -0.868969
 H        -2.300413         2.538479        -0.290751
 H        -1.603185         1.755852        -1.782245
 H        -5.039488         1.759529        -3.045188
