19
Iteration:  4342
 C         1.381339        -0.491171         1.011994
 C         0.029097        -0.270964         0.585985
 C        -1.132764        -0.268465         0.261398
 C        -2.378954        -0.157400        -0.441877
 C        -2.693998        -1.361638        -1.441370
 C        -2.247124         1.098680        -1.297567
 O        -3.453221         2.067806        -1.262403
 C        -3.787002         2.629274        -2.494647
 O        -3.344390         2.325276        -3.578532
 H         1.998079         0.262914         0.657383
 H         1.665907        -0.279339         2.070194
 H         1.626688        -1.619576         0.915487
 H        -3.225339        -0.144922         0.283192
 H        -3.777215        -1.502457        -1.095310
 H        -2.601931        -0.905482        -2.386020
 H        -2.067338        -2.273619        -1.299569
 H        -1.489502         1.821486        -0.851255
 H        -2.185871         0.973859        -2.435268
 H        -4.469923         3.466472        -2.244472
