19
Iteration:  1508charge 0 multiplicity 1
 C         1.216257         0.035819         1.141093
 C         0.003562         0.093045         0.303870
 C        -1.168194         0.069355        -0.101281
 C        -2.511438        -0.019905        -0.609974
 C        -2.984179        -1.465202        -0.553418
 C        -2.557720         0.249359        -2.126796
 O        -2.197989         1.701940        -2.573445
 C        -3.108063         2.637993        -2.289936
 O        -4.305924         2.467681        -1.988279
 H         1.264418         0.766692         1.917932
 H         1.268049        -0.969784         1.476769
 H         2.100455         0.168578         0.420590
 H        -3.140764         0.714410        -0.051869
 H        -3.637379        -1.538414        -1.388075
 H        -2.329892        -2.327932        -0.667670
 H        -3.582286        -1.795485         0.295042
 H        -1.721747        -0.276637        -2.631282
 H        -3.530774        -0.054125        -2.584751
 H        -2.537584         3.628780        -2.595304
