19
Iteration:  1391charge 0 multiplicity 1
 C         1.030519         0.426411         1.023750
 C        -0.134025         0.191958         0.228064
 C        -1.237803         0.067826        -0.239781
 C        -2.587269        -0.100131        -0.779836
 C        -3.101498        -1.538375        -0.585324
 C        -2.723999         0.132682        -2.305277
 O        -2.287483         1.487129        -2.752804
 C        -2.851155         2.499881        -2.175795
 O        -3.748955         2.568339        -1.342895
 H         1.008310        -0.368528         1.840488
 H         1.989230         0.516649         0.448769
 H         0.692727         1.318621         1.551919
 H        -3.286151         0.622348        -0.281822
 H        -3.069124        -1.922591         0.462241
 H        -4.172555        -1.635325        -1.004431
 H        -2.556630        -2.274112        -1.291569
 H        -1.993332        -0.478219        -2.827811
 H        -3.710050        -0.060151        -2.671030
 H        -2.266455         3.458580        -2.309855
