19
Iteration:  3354
 C         1.138401         0.149739         1.065568
 C        -0.119905        -0.011925         0.468195
 C        -1.227822        -0.056491         0.006937
 C        -2.554185        -0.337097        -0.532341
 C        -2.868070        -1.846546        -0.924431
 C        -2.979448         0.411100        -1.878504
 O        -2.420043         1.698679        -1.735166
 C        -2.897158         2.820910        -2.186006
 O        -3.765040         2.819260        -3.015454
 H         1.588265         0.980605         0.537228
 H         1.190466         0.639029         2.108809
 H         1.948586        -0.575851         0.854624
 H        -3.319865        -0.189658         0.223132
 H        -3.716942        -1.924661        -1.627514
 H        -1.966348        -2.062314        -1.532284
 H        -2.889881        -2.496298        -0.066715
 H        -2.471311        -0.117537        -2.723745
 H        -4.136227         0.424126        -1.918901
 H        -2.387664         3.719432        -1.713695
