19
Iteration:  1004charge 0 multiplicity 1
 C         1.322899         0.095460         0.876828
 C        -0.095704         0.029756         0.390227
 C        -1.214834         0.129555        -0.127204
 C        -2.538335        -0.105192        -0.602123
 C        -2.984435        -1.553909        -0.339324
 C        -2.776854         0.250277        -2.165200
 O        -2.322090         1.556362        -2.745902
 C        -3.029765         2.600674        -2.431911
 O        -4.016445         2.716682        -1.703139
 H         1.764880        -0.814169         1.364106
 H         2.004589         0.612352         0.166081
 H         1.227085         0.879901         1.810037
 H        -3.203359         0.474148         0.090899
 H        -3.873456        -1.600474         0.271636
 H        -3.390119        -1.979239        -1.285488
 H        -2.221641        -2.313511        -0.055528
 H        -2.091219        -0.345328        -2.777562
 H        -3.793917         0.154834        -2.473522
 H        -2.425830         3.439095        -2.774371
