19
Iteration:  2731charge 0 multiplicity 1
 C         1.195108         0.415715         0.747447
 C        -0.179537         0.095817         0.313686
 C        -1.275828        -0.224551        -0.095045
 C        -2.708593        -0.490949        -0.442235
 C        -2.950713        -1.900361        -0.987728
 C        -3.248880         0.542988        -1.534040
 O        -2.567277         1.767727        -1.256376
 C        -2.730985         2.754977        -2.211089
 O        -3.275355         2.631475        -3.297826
 H         1.197053         1.072923         1.678522
 H         1.903811        -0.360936         1.043864
 H         1.725719         1.039722        -0.097844
 H        -3.216423        -0.239008         0.492051
 H        -3.978549        -1.879001        -1.394260
 H        -2.242917        -1.971418        -1.793338
 H        -2.849293        -2.596223        -0.197989
 H        -3.116178         0.123664        -2.568867
 H        -4.297247         0.739816        -1.481852
 H        -2.060679         3.590092        -1.935285
