19
Iteration:  2982
 C         1.382587        -0.265695         0.947549
 C         0.076541        -0.128551         0.448241
 C        -1.085995        -0.190389         0.147111
 C        -2.379439        -0.175273        -0.490430
 C        -2.963284        -1.544787        -0.949271
 C        -2.596360         0.704190        -1.769518
 O        -3.178012         1.978231        -1.287623
 C        -3.378008         2.819436        -2.310369
 O        -3.480423         2.446697        -3.456115
 H         2.136865        -0.998433         0.620830
 H         1.891878         0.645363         1.085803
 H         1.385129        -0.486287         2.067483
 H        -2.966328         0.008078         0.419920
 H        -4.089530        -1.425794        -1.096163
 H        -2.593538        -1.711820        -1.983203
 H        -2.725041        -2.428059        -0.279040
 H        -1.628727         1.046719        -2.263662
 H        -3.258426         0.302505        -2.508989
 H        -3.522914         3.857582        -2.077679
