19
Iteration:  2255
 C         0.859394         1.081578        -0.035966
 C        -0.393518         0.292760        -0.207682
 C        -1.458191        -0.226123        -0.050441
 C        -2.879819        -0.558093        -0.342583
 C        -3.190250        -2.120957        -0.561161
 C        -3.340811         0.382392        -1.512526
 O        -3.235263         1.813761        -1.183685
 C        -2.451409         2.622534        -1.997493
 O        -1.732377         2.353454        -2.972653
 H         1.020902         0.998330         1.012720
 H         1.759642         0.674932        -0.489912
 H         0.632897         2.012137        -0.566020
 H        -3.381550        -0.339688         0.628280
 H        -4.054145        -2.294948         0.090538
 H        -3.627319        -2.295602        -1.531823
 H        -2.334821        -2.722421        -0.378687
 H        -2.642338         0.121465        -2.370425
 H        -4.373495         0.218940        -1.792042
 H        -2.441586         3.486976        -1.228732
