19
Iteration:   782charge 0 multiplicity 1
 C         1.435744        -0.245119         0.646351
 C         0.088725        -0.133852         0.130505
 C        -1.103290         0.028398         0.197882
 C        -2.445674         0.061512        -0.340120
 C        -3.064720        -1.370715        -0.108679
 C        -2.601934         0.382604        -1.878206
 O        -2.264668         1.842048        -2.120204
 C        -3.276406         2.689575        -2.371235
 O        -4.355293         2.443904        -2.899816
 H         1.641943         0.461166         1.425321
 H         1.798385        -1.245347         0.990684
 H         2.168971         0.056159        -0.167640
 H        -3.077123         0.848610         0.166262
 H        -3.348564        -1.503282         0.963244
 H        -4.046512        -1.422421        -0.675032
 H        -2.459000        -2.249278        -0.420092
 H        -1.954875        -0.263724        -2.540528
 H        -3.676976         0.320358        -2.222173
 H        -2.746421         3.708192        -2.166223
