19
Iteration:  2289
 C         0.880046         1.042686         0.085223
 C        -0.283273         0.228232        -0.054623
 C        -1.342776        -0.315005        -0.309330
 C        -2.835381        -0.483192        -0.404465
 C        -3.301495        -1.927589        -0.470154
 C        -3.368132         0.317669        -1.605951
 O        -3.105695         1.675603        -1.266536
 C        -2.563477         2.591784        -1.947352
 O        -1.888806         2.460508        -2.930375
 H         0.954747         1.742270         0.883951
 H         1.786617         0.441633         0.236051
 H         0.969732         1.904316        -0.554702
 H        -3.224579        -0.122851         0.582639
 H        -3.765005        -2.292643         0.432726
 H        -3.991479        -2.014414        -1.291775
 H        -2.505613        -2.666315        -0.511673
 H        -2.889569        -0.147799        -2.546877
 H        -4.433126         0.136640        -1.739824
 H        -2.395174         3.605442        -1.486891
