19
Iteration:  3623charge 0 multiplicity 1
 C         1.421907        -0.521391         0.963686
 C         0.081521        -0.351605         0.364148
 C        -1.146276        -0.195509         0.283218
 C        -2.326924        -0.057695        -0.475916
 C        -2.792948        -1.476092        -0.926810
 C        -2.220709         0.996075        -1.563262
 O        -3.327998         2.073670        -1.324964
 C        -3.803303         2.698785        -2.438646
 O        -3.524116         2.462090        -3.604167
 H         1.301760        -1.264872         1.891316
 H         2.170732        -1.120433         0.374913
 H         2.002763         0.364690         1.199262
 H        -3.106183         0.348430         0.225183
 H        -3.853949        -1.392741        -1.129330
 H        -2.196215        -1.925083        -1.719938
 H        -2.644914        -2.139922        -0.113860
 H        -1.278481         1.602114        -1.420254
 H        -2.195513         0.462952        -2.493805
 H        -4.369793         3.621186        -2.067269
