19
Iteration:   229
 C         1.169611         0.496082        -0.956055
 C        -0.273996         0.411469        -0.393789
 C        -1.474488         0.130838        -0.130272
 C        -2.920560        -0.038437         0.027541
 C        -3.311826        -1.554415         0.268070
 C        -3.526057         0.413952        -1.270254
 O        -3.207714         1.766839        -1.231242
 C        -2.493732         2.371099        -2.189734
 O        -1.803724         1.817754        -2.980552
 H         1.507231        -0.556353        -1.156445
 H         1.222100         1.278657        -1.696908
 H         1.812773         0.684715        -0.089548
 H        -3.282839         0.614413         0.912745
 H        -2.483607        -2.010173         0.765701
 H        -4.218873        -1.635438         0.850123
 H        -3.396497        -2.031522        -0.704930
 H        -3.082166        -0.070471        -2.107895
 H        -4.618084         0.317729        -1.231128
 H        -2.487319         3.502253        -2.042552
