19
Iteration:  1662
 C         1.420391        -0.081188         0.810199
 C         0.004090        -0.033756         0.501222
 C        -1.123833        -0.184347         0.065035
 C        -2.432548        -0.094425        -0.509629
 C        -3.080828        -1.544748        -0.508323
 C        -2.484176         0.554138        -1.884537
 O        -2.344465         2.054046        -1.722639
 C        -3.268741         2.708598        -2.441862
 O        -4.242444         2.264306        -3.037234
 H         2.030085        -0.193968        -0.119018
 H         1.506071         0.889643         1.267514
 H         1.672137        -0.998517         1.440378
 H        -3.153614         0.521011         0.048452
 H        -2.767397        -2.102392        -1.392515
 H        -2.956174        -2.011552         0.517768
 H        -4.153126        -1.193372        -0.455461
 H        -1.705274         0.204972        -2.620824
 H        -3.508375         0.334953        -2.219276
 H        -3.211884         3.795553        -2.330396
