19
Iteration:  3415
 C         1.189649        -0.116476         1.072886
 C        -0.130857        -0.025301         0.519290
 C        -1.328762        -0.130532         0.201794
 C        -2.569880        -0.385746        -0.551306
 C        -2.641756        -1.831404        -1.017454
 C        -2.870980         0.670897        -1.718570
 O        -2.356953         2.062165        -1.557965
 C        -2.978078         2.837830        -2.509906
 O        -4.001912         2.607628        -3.099574
 H         1.891694        -0.122481         0.177676
 H         1.403226         0.658351         1.818734
 H         1.196326        -1.066224         1.612225
 H        -3.377883        -0.213314         0.251255
 H        -3.678949        -2.129887        -1.312351
 H        -2.033057        -2.037169        -1.906319
 H        -2.214724        -2.580858        -0.323071
 H        -2.475962         0.269684        -2.689251
 H        -3.868048         0.803600        -1.973177
 H        -2.360412         3.720528        -2.721979
