19
Iteration:  2260
 C         0.827956         1.090997        -0.007902
 C        -0.341778         0.262708        -0.216123
 C        -1.466641        -0.214676        -0.108483
 C        -2.876597        -0.595903        -0.347012
 C        -3.232288        -2.079722        -0.526133
 C        -3.322863         0.354068        -1.517365
 O        -3.227533         1.810094        -1.176367
 C        -2.431466         2.575143        -1.992190
 O        -1.749740         2.412978        -2.985246
 H         1.197941         1.218238         1.135361
 H         1.819966         0.521584        -0.366408
 H         0.688961         2.057418        -0.530530
 H        -3.368991        -0.349672         0.607265
 H        -4.033161        -2.455156         0.151924
 H        -3.732521        -2.150704        -1.547088
 H        -2.305047        -2.726023        -0.342680
 H        -2.734039         0.091942        -2.387046
 H        -4.401220         0.139555        -1.773215
 H        -2.550987         3.597185        -1.402310
