19
Iteration:  2445
 C         1.317129         0.075740         0.482352
 C        -0.158420         0.178023         0.184104
 C        -1.343129         0.298976         0.007755
 C        -2.705947        -0.227663        -0.368527
 C        -2.684794        -1.714317        -0.860603
 C        -3.423365         0.423725        -1.562889
 O        -3.579975         1.886974        -1.277359
 C        -2.904563         2.585695        -2.165457
 O        -2.284207         2.273706        -3.181381
 H         1.720698         0.610774        -0.346124
 H         1.629440         0.890804         1.279343
 H         1.624083        -0.935917         0.772366
 H        -3.333186        -0.216017         0.558843
 H        -2.398446        -2.435845        -0.118320
 H        -3.619963        -1.992768        -1.293312
 H        -1.791405        -1.834457        -1.496242
 H        -2.833468         0.421198        -2.463432
 H        -4.442076         0.031394        -1.820747
 H        -3.104669         3.683888        -1.957773
