19
Iteration:  3281charge 0 multiplicity 1
 C         0.983279         0.521370         0.946035
 C        -0.121208        -0.118734         0.274141
 C        -1.255391        -0.344867        -0.163680
 C        -2.590174        -0.454453        -0.703490
 C        -3.188092        -1.912257        -0.705119
 C        -2.606816         0.436838        -1.917729
 O        -2.335517         1.727061        -1.454087
 C        -2.900571         2.786691        -2.099390
 O        -3.682598         2.822681        -3.015561
 H         0.891184         1.660158         1.166228
 H         1.276731         0.355953         1.875144
 H         1.796454         0.702485         0.190510
 H        -3.247083         0.123772         0.008068
 H        -4.289416        -2.030051        -0.791958
 H        -2.752725        -2.502059        -1.547498
 H        -2.725804        -2.349619         0.185463
 H        -1.800283         0.163353        -2.518599
 H        -3.537444         0.647184        -2.487358
 H        -2.387780         3.684023        -1.767846
