19
Iteration:  1371charge 0 multiplicity 1
 C         0.975929         0.543470         0.959303
 C        -0.245497         0.165502         0.275406
 C        -1.283179         0.045898        -0.393642
 C        -2.664646        -0.146355        -0.775984
 C        -3.103856        -1.595432        -0.603110
 C        -2.733890         0.179492        -2.235576
 O        -2.194162         1.443399        -2.676554
 C        -2.776264         2.577946        -2.143439
 O        -3.677004         2.526792        -1.319807
 H         1.461156        -0.368949         1.492815
 H         1.705618         0.772693         0.101677
 H         0.954158         1.263423         1.723944
 H        -3.350916         0.494845        -0.231092
 H        -3.564676        -1.650422         0.390097
 H        -3.731173        -1.951021        -1.449875
 H        -2.213777        -2.275404        -0.585515
 H        -2.197072        -0.599888        -2.778501
 H        -3.781717         0.169432        -2.532590
 H        -2.573966         3.600580        -2.803707
