19
Iteration:   317
 C         1.330509         0.365479        -0.462698
 C        -0.113338         0.168970        -0.381599
 C        -1.348843         0.158393        -0.215597
 C        -2.757696        -0.129655        -0.036122
 C        -3.285058        -1.626599         0.148262
 C        -3.512992         0.552880        -1.195398
 O        -3.099381         2.000910        -1.136799
 C        -2.682968         2.501939        -2.340884
 O        -2.270501         1.775514        -3.248707
 H         1.993961        -0.151198         0.332895
 H         1.739807        -0.085810        -1.390385
 H         1.605614         1.413448        -0.484714
 H        -3.036497         0.441017         0.861461
 H        -3.282075        -2.005400         1.173904
 H        -4.365582        -1.702396        -0.099808
 H        -2.697752        -2.337672        -0.434381
 H        -3.198768         0.154966        -2.114934
 H        -4.631655         0.547603        -1.107788
 H        -2.953911         3.624330        -2.391691
