19
Iteration:  2183charge 0 multiplicity 1
 C         0.967464         0.905539        -0.236082
 C        -0.413140         0.511238         0.009902
 C        -1.521483         0.073676         0.010105
 C        -2.904396        -0.441314        -0.334325
 C        -2.877522        -1.921161        -0.848832
 C        -3.639370         0.428589        -1.506537
 O        -3.422885         1.834981        -1.245237
 C        -2.374228         2.469014        -1.890624
 O        -1.679207         1.940299        -2.721797
 H         1.598037         0.083491         0.185366
 H         1.267256         1.111781        -1.317043
 H         1.083587         1.909034         0.060970
 H        -3.549951        -0.410880         0.538791
 H        -3.599866        -1.967185        -1.682423
 H        -1.871452        -2.293654        -1.225061
 H        -3.125713        -2.581379         0.035526
 H        -3.264357         0.171985        -2.520720
 H        -4.678519         0.125887        -1.355024
 H        -2.262061         3.360773        -1.296334
