19
Iteration:  2067charge 0 multiplicity 1
 C         1.176330         0.813178         0.137171
 C        -0.147218         0.376749        -0.097403
 C        -1.297239         0.028620        -0.166304
 C        -2.739858        -0.415329        -0.400084
 C        -3.032351        -1.890719        -0.672003
 C        -3.567344         0.393459        -1.403948
 O        -3.545476         1.837995        -1.237210
 C        -2.605236         2.495411        -2.003698
 O        -1.962142         2.090613        -2.973015
 H         1.632767         0.902602        -0.854001
 H         1.251124         1.785537         0.595353
 H         1.841265         0.173664         0.853477
 H        -3.319798        -0.166879         0.543017
 H        -2.184131        -2.500654        -0.871130
 H        -3.679249        -2.361546         0.058069
 H        -3.684435        -1.900841        -1.542481
 H        -3.171712         0.177176        -2.382798
 H        -4.654245         0.160243        -1.473163
 H        -2.548538         3.478453        -1.907574
