19
Iteration:  3473charge 0 multiplicity 1
 C         1.310155        -0.234336         1.184412
 C        -0.024895        -0.209702         0.608220
 C        -1.115225        -0.117463         0.012834
 C        -2.456395        -0.231519        -0.690704
 C        -2.872555        -1.788059        -0.853645
 C        -2.619249         0.607891        -1.897440
 O        -2.595511         2.060741        -1.491787
 C        -3.347990         2.870654        -2.298960
 O        -3.895020         2.662573        -3.353380
 H         2.060420        -0.822895         0.776814
 H         1.750964         0.831472         1.286159
 H         1.151086        -0.656876         2.172953
 H        -3.116885         0.324280        -0.040489
 H        -3.920012        -1.991297        -1.203112
 H        -2.063439        -2.230117        -1.512612
 H        -2.770376        -2.053241         0.213447
 H        -1.888244         0.298415        -2.716007
 H        -3.675150         0.443833        -2.169313
 H        -3.393128         3.760519        -1.705920
