19
Iteration:  1427charge 0 multiplicity 1
 C         1.067170         0.287777         1.089296
 C        -0.133044         0.224627         0.416437
 C        -1.076513         0.070337        -0.285852
 C        -2.500121        -0.143389        -0.847000
 C        -3.105836        -1.565764        -0.485674
 C        -2.679520         0.147658        -2.369883
 O        -2.319040         1.545534        -2.758803
 C        -2.979121         2.600140        -2.236337
 O        -3.921133         2.578265        -1.449239
 H         0.895926        -0.167520         2.104466
 H         2.000270        -0.331490         0.854124
 H         1.561386         1.183895         1.327981
 H        -3.181420         0.566736        -0.414691
 H        -2.382878        -2.353318        -0.164258
 H        -3.852488        -1.331841         0.263485
 H        -3.515219        -1.878981        -1.449306
 H        -1.983851        -0.434211        -2.978188
 H        -3.706058        -0.043998        -2.704994
 H        -2.328066         3.584843        -2.511023
