19
Iteration:  2998
 C         1.482135        -0.198042         1.109321
 C         0.118750        -0.234077         0.481543
 C        -1.037288        -0.255062        -0.007445
 C        -2.433666        -0.192713        -0.538203
 C        -2.978364        -1.564456        -1.000193
 C        -2.665159         0.769061        -1.668444
 O        -3.172957         2.054876        -1.226207
 C        -3.421654         2.814853        -2.366666
 O        -3.446636         2.418311        -3.509331
 H         1.912270        -1.059316         0.590966
 H         2.041871         0.699287         0.677537
 H         1.419869        -0.355709         2.158949
 H        -3.143826         0.269298         0.198755
 H        -4.040051        -1.507281        -0.856289
 H        -2.766980        -1.764415        -2.069369
 H        -2.511731        -2.331359        -0.394855
 H        -1.782030         0.868724        -2.255403
 H        -3.614216         0.320227        -2.143853
 H        -3.606166         3.850120        -1.891618
