19
Iteration:  3211
 C         1.132938         0.464924         0.774663
 C        -0.224431         0.076051         0.457392
 C        -1.305064        -0.397030         0.072438
 C        -2.626722        -0.559083        -0.497574
 C        -3.156216        -1.875026        -1.074211
 C        -2.693007         0.469953        -1.692865
 O        -2.318729         1.947248        -1.443876
 C        -2.850621         2.851609        -2.207803
 O        -3.675678         2.578366        -3.039555
 H         1.354377         1.163250         1.610781
 H         1.845997        -0.401720         0.903005
 H         1.211052         1.087304        -0.117727
 H        -3.275000        -0.175664         0.351347
 H        -3.986796        -1.747155        -1.743239
 H        -2.497919        -2.462669        -1.677394
 H        -3.482385        -2.610207        -0.332335
 H        -1.907472         0.354806        -2.500433
 H        -3.718025         0.463294        -2.010769
 H        -2.170212         3.775065        -2.350678
