19
Iteration:  4985
 C         1.235368         0.112813         1.008265
 C        -0.114480        -0.132713         0.536083
 C        -1.062297        -0.367226        -0.142665
 C        -2.467224        -0.051160        -0.667776
 C        -3.253175        -1.306647        -0.759572
 C        -2.156127         0.550369        -2.065085
 O        -3.285230         1.155157        -2.662893
 C        -3.655428         2.434054        -2.360836
 O        -2.922791         3.186172        -1.685712
 H         1.896879        -0.617790         0.599924
 H         1.612507         1.054495         0.413931
 H         1.516266         0.233115         2.050097
 H        -2.814082         0.558012         0.127520
 H        -4.276976        -1.095679        -0.868007
 H        -3.001210        -1.824375        -1.686934
 H        -3.271029        -1.996556         0.085445
 H        -1.363238         1.190700        -2.016719
 H        -1.788699        -0.192805        -2.752626
 H        -4.722174         2.582743        -2.580500
