19
Iteration:  1930
 C         1.283582         0.416134         0.347718
 C        -0.186266         0.183145         0.178434
 C        -1.329494        -0.184612         0.122175
 C        -2.668597        -0.418749        -0.379945
 C        -3.001704        -1.910771        -0.435283
 C        -3.052977         0.444284        -1.633515
 O        -2.987738         1.896094        -1.232497
 C        -2.935839         2.742428        -2.261451
 O        -2.850486         2.506750        -3.465665
 H         1.386863         1.378737         0.980435
 H         1.853766        -0.465491         0.892736
 H         1.636387         0.528267        -0.707183
 H        -3.222377        -0.041679         0.502435
 H        -4.131034        -1.893576        -0.345523
 H        -2.582863        -2.492084        -1.312898
 H        -2.543799        -2.513305         0.409344
 H        -2.386844         0.212336        -2.470266
 H        -4.072088         0.200144        -1.954672
 H        -3.039585         3.616354        -1.717565
