19
Iteration:  2333
 C         1.076606         0.899248         0.266164
 C        -0.248161         0.238029        -0.077823
 C        -1.358692        -0.222279        -0.237401
 C        -2.816079        -0.522511        -0.431131
 C        -3.252495        -1.999103        -0.438168
 C        -3.229304         0.390850        -1.701022
 O        -3.332104         1.783077        -1.278221
 C        -2.514733         2.673713        -1.936936
 O        -2.099158         2.385684        -3.028339
 H         1.169367         1.885585         0.735105
 H         1.472959         0.195347         0.997078
 H         1.608559         1.011348        -0.713989
 H        -3.227855         0.020307         0.443728
 H        -2.978339        -2.643608         0.367533
 H        -4.305442        -1.872231        -0.548214
 H        -2.726861        -2.544286        -1.201773
 H        -2.503192         0.298817        -2.564009
 H        -4.130332         0.022066        -2.206279
 H        -2.559442         3.654606        -1.356445
