19
Iteration:     3charge 0 multiplicity 1
 C         1.327845         0.342429        -0.403416
 C        -0.102233         0.214740        -0.241842
 C        -1.312739         0.087243        -0.116103
 C        -2.753468        -0.043261         0.019422
 C        -3.159920        -1.516732         0.231797
 C        -3.492379         0.535843        -1.207343
 O        -3.251658         1.952658        -1.287523
 C        -2.642870         2.434374        -2.416887
 O        -2.350155         1.787338        -3.384854
 H         1.598508         1.087919         0.201639
 H         1.907600        -0.635121        -0.131574
 H         1.547918         0.515800        -1.518931
 H        -3.079160         0.529556         0.873072
 H        -2.600445        -1.930808         1.088025
 H        -4.256832        -1.641691         0.365150
 H        -2.862163        -2.099144        -0.670408
 H        -3.160211         0.040181        -2.109154
 H        -4.594425         0.308246        -1.106577
 H        -2.441888         3.548765        -2.259712
