19
Iteration:  1990
 C         1.255494         0.705616         0.248371
 C        -0.212504         0.201039         0.054836
 C        -1.355745        -0.187853        -0.005492
 C        -2.757485        -0.424366        -0.306511
 C        -3.051914        -1.981894        -0.401850
 C        -3.258594         0.359670        -1.690272
 O        -3.207874         1.758013        -1.263336
 C        -2.710871         2.675006        -2.116546
 O        -2.473041         2.520826        -3.286073
 H         1.389083         1.674476        -0.191061
 H         1.625226         0.669370         1.255086
 H         2.001747         0.072326        -0.428385
 H        -3.412725         0.108824         0.454474
 H        -3.166903        -2.399329         0.591171
 H        -4.005866        -2.130467        -0.911238
 H        -2.178271        -2.481534        -0.776182
 H        -2.632194         0.234434        -2.587464
 H        -4.349724         0.116208        -1.836252
 H        -2.481917         3.735791        -1.800396
