19
Iteration:   918charge 0 multiplicity 1
 C         1.372102         0.037019         0.843114
 C        -0.047603        -0.103604         0.253017
 C        -1.193541        -0.030493        -0.131243
 C        -2.520769        -0.006283        -0.728215
 C        -3.149422        -1.392151        -0.123023
 C        -2.584599         0.357879        -2.158072
 O        -2.131204         1.704195        -2.301320
 C        -3.111813         2.659484        -2.291848
 O        -4.279830         2.444697        -2.223630
 H         1.995745        -0.205708        -0.055735
 H         1.688437         0.972168         1.253253
 H         1.515588        -0.680278         1.508906
 H        -2.973730         0.854623        -0.214259
 H        -2.617795        -1.372813         0.840473
 H        -4.251992        -1.322127         0.032247
 H        -2.906059        -2.283064        -0.785990
 H        -1.928635        -0.304918        -2.726888
 H        -3.601469         0.249151        -2.436476
 H        -2.742035         3.674825        -2.618327
