19
Iteration:   702
 C         1.513576        -0.231449         0.677819
 C         0.153040        -0.140601         0.225908
 C        -1.036214        -0.007259        -0.092108
 C        -2.539776        -0.016311        -0.250580
 C        -3.063535        -1.508422        -0.055325
 C        -2.811750         0.512803        -1.640392
 O        -2.375891         1.954974        -1.873920
 C        -3.168038         2.702727        -2.667814
 O        -4.287139         2.415630        -3.084090
 H         1.593467        -0.971624         1.413176
 H         2.047297        -0.500295        -0.231671
 H         2.144650         0.761946         0.963196
 H        -2.982458         0.766723         0.484173
 H        -2.432763        -2.038274         0.660877
 H        -4.122952        -1.740653         0.189511
 H        -2.742279        -2.003179        -1.014259
 H        -2.192492        -0.035083        -2.391934
 H        -3.862404         0.540112        -1.934137
 H        -2.643611         3.789562        -2.828151
