19
Iteration:   206
 C         0.994236         0.505356        -0.933608
 C        -0.393234         0.439848        -0.547588
 C        -1.464383         0.137164        -0.163176
 C        -2.844465        -0.130208         0.025651
 C        -3.265893        -1.618888         0.384313
 C        -3.431718         0.402262        -1.297972
 O        -3.294154         1.933157        -1.228092
 C        -2.433374         2.364696        -2.163609
 O        -1.693519         1.754307        -2.917800
 H         1.168602        -0.328200        -1.551160
 H         1.113529         1.491973        -1.424987
 H         1.687149         0.308066        -0.053845
 H        -3.209931         0.569525         0.809543
 H        -2.507626        -2.194257         0.901647
 H        -4.236859        -1.634184         0.887819
 H        -3.366292        -2.023060        -0.627135
 H        -2.898341         0.072719        -2.202182
 H        -4.503424         0.263294        -1.359953
 H        -2.558585         3.488377        -2.313017
