19
Iteration:  2270
 C         0.852338         1.088723         0.050566
 C        -0.329969         0.218398        -0.180967
 C        -1.429743        -0.213399        -0.219634
 C        -2.857487        -0.576134        -0.318559
 C        -3.297097        -2.039117        -0.499563
 C        -3.327020         0.295277        -1.514913
 O        -3.193883         1.741567        -1.200155
 C        -2.419745         2.590437        -1.954979
 O        -1.791010         2.463493        -2.991623
 H         0.950568         1.501056         1.128630
 H         1.804443         0.519268        -0.347114
 H         0.849734         1.994811        -0.571226
 H        -3.414565        -0.104612         0.521491
 H        -3.951952        -2.416999         0.291791
 H        -3.704299        -2.227815        -1.531263
 H        -2.378886        -2.705783        -0.562938
 H        -2.755945         0.144578        -2.448638
 H        -4.432673         0.168813        -1.674530
 H        -2.681076         3.695716        -1.701547
