19
Iteration:  3809charge 0 multiplicity 1
 C         1.476567        -1.040067         0.785050
 C         0.253014        -0.359588         0.340237
 C        -0.843140         0.038307        -0.016146
 C        -2.280033         0.252550        -0.237774
 C        -2.926085        -0.926050        -1.001135
 C        -2.416414         1.606444        -0.949286
 O        -3.879978         1.755517        -1.461970
 C        -3.954280         2.177551        -2.747707
 O        -2.942161         2.199815        -3.434149
 H         2.201627        -0.167891         0.973604
 H         1.253836        -1.394535         1.762521
 H         1.746806        -1.755462         0.090055
 H        -2.699581         0.317624         0.736166
 H        -3.856271        -1.259066        -0.563422
 H        -3.114800        -0.649996        -2.082369
 H        -2.311946        -1.824472        -1.224950
 H        -2.429690         2.523985        -0.171245
 H        -1.669077         1.789236        -1.723787
 H        -4.914773         2.366401        -3.179035
