19
Iteration:  1223charge 0 multiplicity 1
 C         0.894753         0.957353         0.380974
 C        -0.407680         0.321477         0.264580
 C        -1.428639        -0.208961        -0.201355
 C        -2.814408        -0.313387        -0.747429
 C        -3.178326        -1.857430        -0.681134
 C        -2.834668         0.191785        -2.164638
 O        -1.973927         1.268623        -2.339731
 C        -2.505015         2.507364        -1.967222
 O        -3.523317         2.787623        -1.392463
 H         1.228903         1.560197        -0.394621
 H         0.955126         1.560777         1.241483
 H         1.606344         0.088117         0.556346
 H        -3.536124         0.260898        -0.100221
 H        -2.321712        -2.498201        -0.983079
 H        -3.764325        -2.069202         0.202243
 H        -3.939348        -2.073255        -1.435877
 H        -2.501382        -0.600767        -2.848271
 H        -3.845340         0.514993        -2.461708
 H        -1.836078         3.399109        -2.268791
