19
Iteration:  3635charge 0 multiplicity 1
 C         1.396080        -0.628747         0.922882
 C         0.140788        -0.314221         0.375543
 C        -1.078808        -0.140663         0.293582
 C        -2.418470        -0.058841        -0.379202
 C        -2.748323        -1.404449        -0.946948
 C        -2.250388         1.009194        -1.506272
 O        -3.331197         2.035266        -1.391606
 C        -3.800242         2.691078        -2.438006
 O        -3.493380         2.436813        -3.583819
 H         1.378429        -1.015713         2.023767
 H         1.891367        -1.300345         0.132248
 H         1.895795         0.354100         0.996900
 H        -3.267901         0.279209         0.287428
 H        -3.604974        -1.357394        -1.600648
 H        -1.935593        -1.718941        -1.653931
 H        -3.016507        -2.097682        -0.168825
 H        -1.327544         1.578358        -1.239363
 H        -2.247090         0.771615        -2.514726
 H        -4.699011         3.349654        -2.154074
