19
Iteration:  4797charge 0 multiplicity 1
 C         1.274620        -0.520545         1.060490
 C         0.047891        -0.081441         0.482749
 C        -1.093643         0.223601         0.063577
 C        -2.326899         0.112546        -0.618560
 C        -3.093767        -1.267329        -0.537165
 C        -2.136577         0.740215        -2.048554
 O        -3.333206         1.059922        -2.700120
 C        -3.757697         2.358795        -2.597965
 O        -3.198046         3.109002        -1.868164
 H         2.007844         0.360145         1.038107
 H         1.211248        -0.878449         2.141513
 H         1.706683        -1.246855         0.415117
 H        -3.034696         0.857366        -0.079829
 H        -4.261010        -1.175192        -0.672262
 H        -2.761511        -1.931169        -1.327450
 H        -3.061821        -1.750602         0.454909
 H        -1.536524         1.719848        -1.920290
 H        -1.488046         0.208946        -2.786401
 H        -4.478174         2.575643        -3.456622
