19
Iteration:  1567
 C         1.324692        -0.002152         0.887218
 C        -0.092052        -0.065124         0.503813
 C        -1.167721        -0.001205        -0.084870
 C        -2.471366        -0.002876        -0.622616
 C        -3.085693        -1.572532        -0.448143
 C        -2.454018         0.459445        -2.087507
 O        -2.148934         1.890391        -2.185406
 C        -3.178251         2.660153        -2.302374
 O        -4.344981         2.312849        -2.456677
 H         1.740952         1.070602         0.905381
 H         1.314686        -0.366840         1.955065
 H         1.913403        -0.632243         0.298226
 H        -3.197126         0.695018        -0.107583
 H        -3.742759        -1.383768         0.430433
 H        -3.553021        -1.828901        -1.391736
 H        -2.302108        -2.262753        -0.105408
 H        -1.635610        -0.065988        -2.550977
 H        -3.376806         0.303667        -2.601886
 H        -2.993462         3.740222        -2.341252
