19
Iteration:   360
 C         1.302345         0.224112        -0.250967
 C        -0.072546         0.247959        -0.294640
 C        -1.247245        -0.061853        -0.142962
 C        -2.654269        -0.096023        -0.001826
 C        -3.118071        -1.530094         0.031262
 C        -3.484406         0.588269        -1.139226
 O        -3.181711         2.035001        -1.236482
 C        -2.603982         2.448728        -2.370536
 O        -2.620306         1.914105        -3.448553
 H         1.633993         0.212198         0.702751
 H         1.762306        -0.718418        -0.641100
 H         1.705644         1.134796        -0.763463
 H        -2.907260         0.349068         0.912803
 H        -2.558039        -2.228896         0.663968
 H        -4.172915        -1.498405         0.420230
 H        -3.222876        -2.000161        -0.955639
 H        -3.338021         0.067142        -2.046080
 H        -4.547609         0.451998        -0.836018
 H        -2.187886         3.417953        -2.113596
