19
Iteration:   499
 C         1.498435         0.044355         0.015047
 C         0.037666        -0.062900         0.149342
 C        -1.158743        -0.052890        -0.034738
 C        -2.597794        -0.100607        -0.101733
 C        -3.180470        -1.566676         0.051698
 C        -3.068050         0.546294        -1.392473
 O        -2.813841         1.950816        -1.330499
 C        -2.950924         2.649273        -2.522295
 O        -3.396121         2.233470        -3.544417
 H         1.522668         0.943152        -0.662034
 H         2.105176         0.397956         0.869638
 H         1.879226        -0.789247        -0.488857
 H        -3.006179         0.476770         0.812497
 H        -3.304112        -1.670144         1.118801
 H        -4.098704        -1.737488        -0.531269
 H        -2.502256        -2.292789        -0.370478
 H        -2.503138         0.201752        -2.244307
 H        -4.111467         0.469565        -1.709093
 H        -2.799486         3.795076        -2.413920
