19
Iteration:  1097
 C         1.042792         0.550057         0.812908
 C        -0.176448         0.300493         0.062608
 C        -1.292622        -0.028080        -0.198063
 C        -2.711079        -0.107758        -0.720352
 C        -3.166624        -1.518515        -0.471898
 C        -2.766442         0.112262        -2.190860
 O        -2.244932         1.417347        -2.777007
 C        -2.661140         2.453425        -2.020656
 O        -3.700483         2.541248        -1.382365
 H         0.935668         0.948939         1.870162
 H         1.638107        -0.408907         0.771893
 H         1.581688         1.227532         0.269101
 H        -3.249518         0.753846        -0.316133
 H        -3.867689        -1.758318         0.363617
 H        -3.820837        -1.858762        -1.342292
 H        -2.277063        -2.204522        -0.527894
 H        -2.177459        -0.537073        -2.860952
 H        -3.858490         0.120365        -2.462010
 H        -2.207903         3.459163        -2.123457
