19
Iteration:  4130
 C         1.379638        -1.101727         1.035281
 C         0.204954        -0.384706         0.562043
 C        -0.880766         0.090402         0.218799
 C        -2.185357         0.233901        -0.332311
 C        -2.579763        -0.983398        -1.276037
 C        -2.241458         1.581955        -1.121088
 O        -3.643869         2.008578        -1.405489
 C        -4.066062         2.317199        -2.631612
 O        -3.526562         2.014700        -3.656979
 H         0.968895        -1.801721         1.809652
 H         1.850815        -1.775171         0.226954
 H         2.193596        -0.483689         1.257616
 H        -2.909151         0.261174         0.472052
 H        -1.669445        -1.565152        -1.545309
 H        -3.236710        -1.771132        -0.912766
 H        -2.961047        -0.841136        -2.255657
 H        -1.839658         2.453405        -0.534809
 H        -1.620260         1.289999        -2.048606
 H        -4.874029         3.047339        -2.569421
