19
Iteration:  3075charge 0 multiplicity 1
 C         1.331314        -0.204548         1.090181
 C         0.036997        -0.135572         0.362682
 C        -1.124190        -0.014995        -0.087196
 C        -2.453167        -0.267435        -0.511538
 C        -2.779390        -1.771392        -0.824515
 C        -2.868422         0.493832        -1.800409
 O        -2.996615         1.936398        -1.346450
 C        -3.205233         2.923563        -2.278019
 O        -3.570118         2.685583        -3.404764
 H         1.471971        -1.116466         1.661083
 H         2.188277         0.068443         0.348849
 H         1.404218         0.590650         1.801596
 H        -3.162855         0.202545         0.171582
 H        -3.793249        -1.865416        -1.234925
 H        -2.000522        -2.174328        -1.510503
 H        -2.742480        -2.228628         0.149630
 H        -2.098287         0.552055        -2.559976
 H        -3.910869         0.113507        -2.029254
 H        -2.774769         3.868932        -1.834637
