19
Iteration:  3291
 C         1.020449         0.501436         0.945139
 C        -0.197719        -0.038055         0.314118
 C        -1.221331        -0.446550        -0.150308
 C        -2.626149        -0.476348        -0.695827
 C        -3.099584        -1.926339        -0.670012
 C        -2.604405         0.368873        -1.970866
 O        -2.368178         1.769443        -1.457830
 C        -2.852324         2.866894        -2.164367
 O        -3.729190         2.897491        -3.014810
 H         0.697326         1.576022         0.943752
 H         1.161014         0.099085         1.878962
 H         1.973880         0.315583         0.365734
 H        -3.207710         0.171205         0.020127
 H        -4.142131        -2.130923        -0.505768
 H        -2.738837        -2.546537        -1.504172
 H        -2.684241        -2.325880         0.234853
 H        -1.778276         0.187636        -2.576550
 H        -3.561157         0.243377        -2.535627
 H        -2.404705         3.776127        -1.688899
