19
Iteration:   610charge 0 multiplicity 1
 C         1.463038        -0.135949         0.421390
 C         0.058032         0.006930         0.235280
 C        -1.083246        -0.206847        -0.128067
 C        -2.487926        -0.095728        -0.262438
 C        -3.058606        -1.459831        -0.015709
 C        -2.994524         0.615990        -1.582672
 O        -2.475346         1.978530        -1.607586
 C        -3.085785         2.682507        -2.557166
 O        -3.967896         2.295339        -3.308005
 H         1.901272        -0.912126        -0.301434
 H         1.938347         0.850215         0.236488
 H         1.821797        -0.299159         1.407091
 H        -2.758521         0.521511         0.643938
 H        -2.893256        -1.729715         1.033863
 H        -4.133883        -1.481303        -0.176016
 H        -2.667703        -2.280446        -0.616633
 H        -2.504869         0.087530        -2.360057
 H        -4.072164         0.564235        -1.684295
 H        -2.497347         3.645011        -2.510129
