19
Iteration:  1465
 C         1.143375         0.154504         1.122906
 C        -0.144433         0.066265         0.445577
 C        -1.155225         0.060958        -0.263825
 C        -2.474921        -0.037290        -0.769418
 C        -2.935101        -1.477373        -0.497917
 C        -2.702169         0.253386        -2.344165
 O        -2.193908         1.601955        -2.619584
 C        -3.093584         2.619031        -2.372372
 O        -4.052310         2.490046        -1.613324
 H         0.767115         0.340018         2.139533
 H         1.554235        -0.826513         1.030354
 H         1.853218         1.013017         0.841415
 H        -3.137011         0.657146        -0.165683
 H        -2.654101        -2.149335        -1.327504
 H        -2.601807        -1.759775         0.538244
 H        -4.040818        -1.506202        -0.357161
 H        -2.080384        -0.471009        -2.911106
 H        -3.772472         0.172408        -2.650230
 H        -2.819748         3.613461        -2.889778
