19
Iteration:  3100charge 0 multiplicity 1
 C         1.277106        -0.159377         0.988357
 C        -0.134683         0.132683         0.459256
 C        -1.182063        -0.014253        -0.120174
 C        -2.512191        -0.357135        -0.541485
 C        -2.705790        -1.883568        -0.744690
 C        -2.880351         0.473181        -1.853815
 O        -2.841920         1.870607        -1.356872
 C        -3.081519         2.829815        -2.250870
 O        -3.610509         2.812067        -3.348665
 H         1.100721        -1.077570         1.553234
 H         1.847495        -0.416549        -0.019669
 H         1.977075         0.444474         1.572229
 H        -3.267090         0.102708         0.147409
 H        -3.675702        -1.985358        -1.208827
 H        -1.919476        -2.271335        -1.329667
 H        -2.793009        -2.288125         0.257049
 H        -2.052383         0.521014        -2.637432
 H        -3.877713         0.264126        -2.190965
 H        -2.697270         3.779633        -1.730930
