19
Iteration:    77
 C         1.197308         0.424025        -0.733192
 C        -0.246300         0.390075        -0.492338
 C        -1.424068         0.171115        -0.218053
 C        -2.846324        -0.031182         0.048826
 C        -3.206835        -1.504899         0.243943
 C        -3.567085         0.508571        -1.171448
 O        -3.346310         1.819725        -1.261978
 C        -2.512260         2.333357        -2.264291
 O        -1.852236         1.716262        -3.033500
 H         1.360280         1.512264        -1.174178
 H         1.760267         0.373262         0.142143
 H         1.460811        -0.385755        -1.304147
 H        -3.119208         0.594183         0.946590
 H        -2.523484        -1.885546         0.985808
 H        -4.233219        -1.645905         0.559760
 H        -3.037506        -2.048155        -0.682772
 H        -3.172248        -0.053887        -2.003661
 H        -4.641939         0.304689        -1.182367
 H        -2.597906         3.379580        -2.150065
