19
Iteration:  2100charge 0 multiplicity 1
 C         1.156024         0.866505         0.049008
 C        -0.252172         0.449648        -0.052793
 C        -1.369470         0.012918        -0.317675
 C        -2.817389        -0.333034        -0.417023
 C        -2.903904        -1.832888        -0.741189
 C        -3.674647         0.421003        -1.405781
 O        -3.559565         1.905857        -1.313087
 C        -2.511897         2.447784        -1.893954
 O        -1.866407         1.843319        -2.723249
 H         1.717334         0.372499        -0.757666
 H         1.253891         1.854960        -0.316673
 H         1.750550         0.420880         0.959657
 H        -3.233988        -0.105535         0.623733
 H        -2.103488        -2.071174        -1.426646
 H        -2.821632        -2.575469         0.034203
 H        -3.748802        -1.985742        -1.396788
 H        -3.392901         0.217377        -2.413558
 H        -4.759116         0.195858        -1.281208
 H        -2.561786         3.524819        -1.703325
