19
Iteration:  4924charge 0 multiplicity 1
 C         1.170620         0.163439         1.262060
 C         0.117183        -0.144874         0.278916
 C        -0.932343        -0.289041        -0.261851
 C        -2.334086         0.012146        -0.715571
 C        -3.473081        -1.069551        -0.730162
 C        -2.158010         0.463072        -2.227295
 O        -3.421823         1.078029        -2.752346
 C        -3.637199         2.368735        -2.259862
 O        -2.879169         2.980053        -1.511518
 H         2.132435         0.112398         0.674441
 H         1.065494         1.168451         1.570573
 H         1.204000        -0.410419         2.222358
 H        -2.783579         0.784280        -0.081032
 H        -4.363986        -0.456851        -0.930016
 H        -3.298332        -1.786737        -1.588627
 H        -3.485198        -1.599668         0.245178
 H        -1.249033         1.174409        -2.363939
 H        -2.071471        -0.550155        -2.632437
 H        -4.584700         2.801216        -2.680317
