19
Iteration:   281
 C         1.217949         0.484481        -0.661725
 C        -0.139445         0.036703        -0.315045
 C        -1.306164        -0.110749        -0.086474
 C        -2.784147        -0.037341         0.131157
 C        -3.188156        -1.568790         0.197650
 C        -3.610160         0.540765        -1.208524
 O        -3.408701         2.008104        -1.318097
 C        -2.411164         2.501404        -2.257221
 O        -2.103729         1.832035        -3.235270
 H         1.928595        -0.137892        -0.390108
 H         0.976591         0.603940        -1.788675
 H         1.544874         1.569975        -0.328711
 H        -2.982883         0.499244         0.979806
 H        -2.964573        -2.016687         1.191514
 H        -4.265114        -1.749062        -0.133627
 H        -2.528626        -2.022494        -0.584926
 H        -3.188632         0.028130        -2.133035
 H        -4.692905         0.299789        -1.075920
 H        -2.168148         3.539657        -2.109681
