19
Iteration:  4249charge 0 multiplicity 1
 C         1.442595        -0.966363         1.295761
 C         0.247192        -0.559497         0.564359
 C        -0.861402        -0.226334         0.147742
 C        -2.090669         0.207668        -0.404688
 C        -2.796007        -0.791676        -1.387648
 C        -2.115943         1.635201        -1.153609
 O        -3.596522         1.843222        -1.393654
 C        -4.087658         2.146768        -2.628194
 O        -3.582336         2.339938        -3.722896
 H         1.697191        -0.138184         2.017007
 H         1.396167        -1.812652         1.981743
 H         2.170565        -1.260193         0.649199
 H        -2.762293         0.371904         0.490848
 H        -3.425153        -0.268212        -2.092897
 H        -2.243962        -1.523927        -1.983780
 H        -3.536445        -1.436929        -0.922516
 H        -1.758314         2.446229        -0.572334
 H        -1.565009         1.490771        -2.091877
 H        -5.210052         2.075719        -2.462800
