19
Iteration:  4971
 C         1.243243         0.192026         1.034281
 C        -0.085976        -0.128107         0.429857
 C        -1.079980        -0.441853        -0.170701
 C        -2.362015        -0.054510        -0.723793
 C        -3.372855        -1.221271        -0.766267
 C        -2.113659         0.547915        -2.068001
 O        -3.326952         1.130015        -2.643173
 C        -3.624635         2.371986        -2.270748
 O        -2.910224         3.130316        -1.668964
 H         2.043121        -0.531233         0.727045
 H         1.513732         1.243763         0.973961
 H         0.988726         0.073683         2.069756
 H        -2.756888         0.789873        -0.249395
 H        -4.438516        -0.908908        -0.596583
 H        -3.247574        -1.777212        -1.632674
 H        -3.016061        -1.845570         0.034031
 H        -1.377944         1.392885        -1.964265
 H        -1.843935        -0.231222        -2.806901
 H        -4.536992         2.653425        -2.763305
