19
Iteration:   743
 C         1.473469        -0.322911         0.617770
 C         0.091673         0.060129         0.412740
 C        -1.031264         0.115239        -0.049538
 C        -2.422998         0.044114        -0.412250
 C        -3.063555        -1.380683        -0.090116
 C        -2.761935         0.347875        -1.907918
 O        -2.343900         1.773377        -1.908400
 C        -3.223676         2.700432        -2.430253
 O        -4.280612         2.443505        -2.994215
 H         1.924413        -0.579493         1.674286
 H         1.484764        -1.272911         0.069549
 H         2.027111         0.478478         0.130624
 H        -2.946029         0.734478         0.232407
 H        -2.652989        -1.817848         0.822828
 H        -4.089366        -1.164765         0.059877
 H        -2.771823        -2.091563        -0.865017
 H        -2.207563        -0.220180        -2.623152
 H        -3.818853         0.218558        -2.047131
 H        -2.926329         3.713309        -2.342714
