19
Iteration:   693charge 0 multiplicity 1
 C         1.555681        -0.198062         0.634259
 C         0.103048        -0.177305         0.181267
 C        -1.067205        -0.043931        -0.093625
 C        -2.494083        -0.023088        -0.159841
 C        -3.043233        -1.485275        -0.104868
 C        -2.790799         0.576709        -1.570419
 O        -2.402350         1.931063        -1.906091
 C        -3.188415         2.678123        -2.661980
 O        -4.259594         2.437173        -3.121900
 H         1.540220        -0.932632         1.341584
 H         2.354312        -0.519800        -0.038968
 H         1.673036         0.715948         1.277713
 H        -2.871102         0.542878         0.722267
 H        -2.498278        -1.971626         0.721498
 H        -4.169265        -1.533556         0.046893
 H        -2.710637        -1.991781        -1.037497
 H        -2.217617        -0.093209        -2.299820
 H        -3.887025         0.468616        -1.809355
 H        -2.754398         3.735114        -2.827831
