19
Iteration:  3844
 C         1.426951        -0.924601         0.584944
 C         0.152277        -0.367896         0.327569
 C        -0.989617         0.006243         0.264953
 C        -2.343064         0.143549        -0.107937
 C        -2.750533        -1.032048        -1.089885
 C        -2.410201         1.557960        -0.855703
 O        -3.852276         1.909233        -1.390041
 C        -3.854719         2.245608        -2.782803
 O        -2.966497         2.136141        -3.615728
 H         2.224365        -0.223538         0.222317
 H         1.570040        -1.057136         1.710496
 H         1.717110        -1.880508         0.198154
 H        -2.998220         0.173596         0.771848
 H        -3.831774        -0.979680        -1.236080
 H        -2.337206        -0.708875        -2.057565
 H        -2.390087        -1.935049        -0.554427
 H        -2.293390         2.387994        -0.062675
 H        -1.656380         1.676510        -1.677538
 H        -4.915917         2.497123        -2.957172
