19
Iteration:  3695
 C         1.585066        -0.833701         0.854140
 C         0.167948        -0.447559         0.694909
 C        -0.952326        -0.170296         0.221750
 C        -2.274387         0.207958        -0.401990
 C        -2.890987        -1.160519        -1.075709
 C        -2.202807         1.405850        -1.312931
 O        -3.686403         1.867373        -1.363338
 C        -3.986931         2.372781        -2.590022
 O        -3.300672         2.397040        -3.618062
 H         2.063494        -0.777508         1.800528
 H         1.658671        -1.919600         0.547439
 H         2.010477        -0.245444        -0.014518
 H        -3.064843         0.506955         0.276179
 H        -3.572820        -0.798684        -1.926307
 H        -2.102656        -1.843148        -1.359086
 H        -3.403095        -1.750466        -0.271580
 H        -1.630925         2.164154        -0.812234
 H        -1.804276         1.284932        -2.388882
 H        -4.949754         2.882639        -2.464978
