19
Iteration:  3479
 C         1.285916        -0.213898         1.208083
 C        -0.017555        -0.215008         0.541520
 C        -1.116221        -0.186343        -0.008322
 C        -2.426552        -0.284581        -0.669155
 C        -2.856089        -1.743383        -0.800447
 C        -2.619083         0.647949        -1.957675
 O        -2.612309         2.072522        -1.488144
 C        -3.386598         2.868861        -2.275992
 O        -3.873527         2.658022        -3.358816
 H         2.094906        -0.959491         0.774930
 H         1.820599         0.694684         1.331741
 H         1.160712        -0.563209         2.263286
 H        -3.196761         0.152216         0.053045
 H        -3.872611        -1.967735        -1.102845
 H        -2.090238        -2.290424        -1.305096
 H        -2.904547        -2.008144         0.265031
 H        -1.765007         0.637614        -2.626588
 H        -3.598872         0.481066        -2.438105
 H        -3.467967         3.897164        -1.766804
