19
Iteration:  2786charge 0 multiplicity 1
 C         1.109195         0.287607         1.104785
 C         0.049540        -0.112485         0.170802
 C        -1.044959        -0.254396        -0.291031
 C        -2.527008        -0.389723        -0.483510
 C        -2.983942        -1.806575        -1.022911
 C        -3.246675         0.617944        -1.411250
 O        -2.725497         1.970769        -1.257429
 C        -2.769049         2.782376        -2.377641
 O        -3.470037         2.518744        -3.326878
 H         1.109953         1.324566         1.547611
 H         1.336746        -0.304796         1.961686
 H         2.117649         0.068019         0.583603
 H        -2.910349        -0.238949         0.540406
 H        -4.089302        -1.970650        -1.162335
 H        -2.426381        -2.213336        -1.865534
 H        -2.636193        -2.517158        -0.251508
 H        -3.039152         0.254747        -2.472759
 H        -4.283413         0.716842        -1.163602
 H        -2.310045         3.787688        -2.282186
