19
Iteration:  3607charge 0 multiplicity 1
 C         1.418472        -0.479518         1.015112
 C         0.141082        -0.380627         0.528702
 C        -1.036577        -0.247559         0.148841
 C        -2.414059        -0.075616        -0.515991
 C        -2.896788        -1.530677        -0.882946
 C        -2.275475         1.074262        -1.631731
 O        -3.248594         2.023863        -1.333369
 C        -3.698567         2.732059        -2.413623
 O        -3.582255         2.484735        -3.588842
 H         1.541792        -1.119044         1.880457
 H         2.234052        -0.730510         0.312869
 H         1.779338         0.530519         1.381722
 H        -3.103863         0.368544         0.197876
 H        -3.995065        -1.703077        -0.981552
 H        -2.582092        -1.843125        -1.905094
 H        -2.412443        -2.284185        -0.184005
 H        -1.285512         1.485359        -1.763225
 H        -2.596338         0.807623        -2.734010
 H        -4.382975         3.478267        -2.068524
