19
Iteration:  4282
 C         1.437680        -0.833242         1.246919
 C         0.127849        -0.495861         0.565819
 C        -0.957173        -0.169059         0.057783
 C        -2.266550         0.094716        -0.474815
 C        -2.687118        -1.132200        -1.344267
 C        -2.240903         1.486621        -1.213822
 O        -3.541524         2.046413        -1.300602
 C        -3.981467         2.340519        -2.574936
 O        -3.462317         2.287966        -3.640609
 H         2.044475         0.129203         1.337403
 H         1.231390        -1.416413         2.144268
 H         2.113213        -1.234855         0.593394
 H        -2.984810         0.171070         0.387211
 H        -3.637345        -0.922277        -1.818050
 H        -1.983502        -1.385016        -2.214143
 H        -2.724643        -1.964718        -0.656912
 H        -1.518837         2.136272        -0.779143
 H        -1.826926         1.309835        -2.215221
 H        -5.084616         2.559418        -2.511291
