19
Iteration:   287charge 0 multiplicity 1
 C         1.192066         0.480319        -0.636234
 C        -0.128592         0.036449        -0.304955
 C        -1.340908        -0.089244        -0.086201
 C        -2.754140        -0.053398         0.068645
 C        -3.154316        -1.513683         0.173512
 C        -3.630701         0.527968        -1.212147
 O        -3.343012         2.018374        -1.256501
 C        -2.474572         2.479033        -2.303929
 O        -2.129461         1.825887        -3.237065
 H         2.164926        -0.224268        -0.330385
 H         1.407470         0.465125        -1.712904
 H         1.352677         1.460288        -0.316416
 H        -2.962019         0.621451         1.025146
 H        -3.112959        -2.000354         1.152039
 H        -4.137178        -1.638439        -0.238054
 H        -2.626938        -2.197392        -0.503908
 H        -3.226740        -0.028038        -2.062956
 H        -4.680016         0.267247        -1.117359
 H        -2.321640         3.573645        -2.012751
