19
Iteration:  1604charge 0 multiplicity 1
 C         1.346743         0.012133         0.827648
 C         0.039359        -0.134619         0.351025
 C        -1.148442         0.008292         0.194970
 C        -2.476522         0.021264        -0.511736
 C        -3.132455        -1.451573        -0.622181
 C        -2.388065         0.443550        -1.949032
 O        -2.226066         1.878946        -2.010808
 C        -3.257615         2.679908        -2.305627
 O        -4.339837         2.279274        -2.718240
 H         1.953865         0.788313         0.412796
 H         1.274054         0.163291         1.914822
 H         1.884619        -1.023799         0.828051
 H        -3.174810         0.597242         0.040658
 H        -2.973983        -2.122786         0.238771
 H        -4.237074        -1.304037        -0.504359
 H        -3.046710        -2.094316        -1.514240
 H        -1.500042         0.063447        -2.491088
 H        -3.308872         0.086046        -2.490555
 H        -2.840119         3.599930        -2.227015
