19
Iteration:  2223
 C         0.875315         1.009274        -0.196231
 C        -0.454334         0.388625        -0.000876
 C        -1.551871        -0.126219        -0.073531
 C        -2.919812        -0.457852        -0.351244
 C        -3.025932        -1.934699        -0.700657
 C        -3.367870         0.383014        -1.538271
 O        -3.279610         1.786674        -1.146640
 C        -2.437986         2.512142        -1.943926
 O        -1.731276         2.119641        -2.838619
 H         1.485478         0.793708         0.719263
 H         1.250422         0.638213        -1.198222
 H         0.798898         2.140236        -0.239063
 H        -3.538976        -0.218333         0.560584
 H        -4.062812        -2.232622        -0.465506
 H        -2.806489        -2.056576        -1.761151
 H        -2.367857        -2.636180        -0.198411
 H        -2.615898         0.219253        -2.381980
 H        -4.394636         0.270102        -1.905367
 H        -2.171201         3.506540        -1.317368
