19
Iteration:  3346charge 0 multiplicity 1
 C         1.183323         0.245761         1.071414
 C        -0.096251        -0.001155         0.486931
 C        -1.231057        -0.067012        -0.012871
 C        -2.573738        -0.434882        -0.537082
 C        -2.921214        -1.900415        -0.888625
 C        -2.956102         0.392697        -1.905218
 O        -2.389870         1.666768        -1.718021
 C        -2.932827         2.845346        -2.166954
 O        -3.766723         2.905065        -3.049661
 H         1.652089         1.180803         0.535901
 H         1.168210         0.330315         2.151287
 H         1.830429        -0.682459         0.820225
 H        -3.291922         0.050301         0.239808
 H        -3.823442        -1.791617        -1.461563
 H        -2.108232        -2.231898        -1.556357
 H        -2.900271        -2.621029        -0.085733
 H        -2.537875        -0.043951        -2.761697
 H        -4.044445         0.266409        -2.158326
 H        -2.323200         3.672565        -1.647566
