19
Iteration:  4240charge 0 multiplicity 1
 C         1.470546        -1.014731         1.289776
 C         0.227650        -0.568904         0.626378
 C        -0.826621        -0.216580         0.094658
 C        -2.127690         0.325204        -0.442872
 C        -2.819338        -0.742315        -1.400065
 C        -2.138554         1.613123        -1.150630
 O        -3.572247         1.783106        -1.396011
 C        -4.037945         2.066320        -2.617154
 O        -3.609717         2.340850        -3.714771
 H         1.753419        -0.234881         2.052713
 H         1.154564        -2.001298         1.853101
 H         2.404604        -1.133596         0.753222
 H        -2.886087         0.341654         0.396617
 H        -3.367162        -0.200957        -2.081818
 H        -2.013005        -1.399909        -1.848605
 H        -3.562986        -1.072588        -0.718061
 H        -1.990854         2.586180        -0.536944
 H        -1.642950         1.657828        -2.122538
 H        -5.155988         2.147055        -2.425911
