19
Iteration:  3941charge 0 multiplicity 1
 C         1.455494        -0.419277         0.598041
 C         0.063226        -0.416255         0.356280
 C        -1.148999        -0.334301         0.236066
 C        -2.497074         0.019594        -0.286042
 C        -3.037593        -0.904694        -1.351076
 C        -2.250989         1.407889        -0.877307
 O        -3.420014         2.122763        -1.275326
 C        -3.755510         2.226988        -2.567737
 O        -3.069589         1.837175        -3.484457
 H         1.864758        -0.575574        -0.488673
 H         1.723273         0.499116         1.062934
 H         1.860557        -1.114308         1.284705
 H        -3.181764         0.137241         0.519212
 H        -3.478770        -0.244618        -2.143010
 H        -2.117782        -1.367349        -1.778139
 H        -3.822558        -1.487404        -0.786137
 H        -1.850412         2.134815        -0.059072
 H        -1.533010         1.370178        -1.769323
 H        -4.804081         2.536854        -2.614338
