19
Iteration:   584
 C         1.550901        -0.085290         0.309754
 C         0.101088        -0.099467         0.025563
 C        -1.131280         0.086052         0.087376
 C        -2.627626        -0.052510        -0.145861
 C        -3.138451        -1.511577        -0.024390
 C        -2.954748         0.515530        -1.613127
 O        -2.540327         1.884701        -1.572672
 C        -3.081255         2.693046        -2.483904
 O        -3.825493         2.334244        -3.398891
 H         2.286449        -0.645580        -0.423974
 H         1.923015         0.899245         0.709329
 H         1.713564        -0.589762         1.279057
 H        -3.096598         0.523736         0.614875
 H        -2.721977        -2.082859         0.814167
 H        -4.255688        -1.539850         0.185948
 H        -2.927666        -2.190622        -0.864561
 H        -2.303205        -0.126123        -2.288363
 H        -4.049324         0.377453        -1.775365
 H        -2.563320         3.559063        -2.223552
