19
Iteration:  4630
 C         1.508006        -0.924828         0.923216
 C         0.146726        -0.459871         0.544675
 C        -0.944262        -0.026675         0.195790
 C        -2.357832         0.266093        -0.203337
 C        -2.786745        -1.217737        -0.702807
 C        -2.408493         1.219161        -1.336688
 O        -3.501887         1.150462        -2.268924
 C        -3.838831         2.263035        -2.971340
 O        -3.441794         3.374901        -2.843809
 H         1.594389        -1.251526         1.990407
 H         1.905484        -1.768787         0.394712
 H         2.143494        -0.051274         0.866585
 H        -3.118564         0.596590         0.581202
 H        -3.763594        -1.202875        -1.068031
 H        -2.016213        -1.454618        -1.512440
 H        -2.572056        -1.816182         0.180437
 H        -2.250249         2.293385        -0.958023
 H        -1.432161         1.124641        -1.837451
 H        -4.461645         1.934925        -3.873536
