19
Iteration:  1146
 C         0.982364         0.773989         0.568980
 C        -0.392137         0.323975         0.268979
 C        -1.382360        -0.043962        -0.339333
 C        -2.691570        -0.269008        -0.802892
 C        -3.280916        -1.699331        -0.525360
 C        -2.770163         0.152200        -2.283599
 O        -2.014918         1.356447        -2.506422
 C        -2.642798         2.481724        -2.045419
 O        -3.568664         2.608351        -1.284920
 H         0.898529         1.741262         0.939378
 H         1.410035         0.167594         1.314792
 H         1.722500         0.729434        -0.296592
 H        -3.258962         0.465448        -0.186241
 H        -2.810299        -1.982302         0.410780
 H        -4.294707        -1.638584        -0.195663
 H        -3.192489        -2.496853        -1.241624
 H        -2.241633        -0.563522        -2.920547
 H        -3.800307         0.293597        -2.608156
 H        -2.164885         3.431726        -2.264275
