19
Iteration:   941charge 0 multiplicity 1
 C         1.314546         0.004477         0.846339
 C        -0.009995         0.110564         0.311939
 C        -1.092188         0.011519        -0.271470
 C        -2.497623        -0.068786        -0.609899
 C        -3.202279        -1.504599        -0.163594
 C        -2.716854         0.323248        -2.160164
 O        -2.120823         1.732773        -2.390860
 C        -3.071953         2.629320        -2.398458
 O        -4.203009         2.461076        -2.059271
 H         2.027590        -0.673243         0.273178
 H         1.779116         0.935873         1.040846
 H         1.121326        -0.399821         1.739591
 H        -2.960278         0.828084        -0.211623
 H        -3.346539        -1.424918         0.923461
 H        -4.170237        -1.540816        -0.725397
 H        -2.564110        -2.317480        -0.591221
 H        -2.178322        -0.404808        -2.748970
 H        -3.766621         0.371681        -2.310596
 H        -2.663061         3.685625        -2.480392
