19
Iteration:  3172charge 0 multiplicity 1
 C         1.103018         0.280884         0.727760
 C        -0.251029        -0.155280         0.433502
 C        -1.402366        -0.208324         0.168099
 C        -2.687401        -0.372260        -0.470324
 C        -2.760148        -1.848658        -0.908111
 C        -2.753302         0.496755        -1.782129
 O        -2.438653         1.815243        -1.459669
 C        -2.905610         2.891005        -2.215531
 O        -3.659340         2.711806        -3.142274
 H         1.256567         0.450215         1.842602
 H         1.734947        -0.419428         0.213769
 H         1.377902         1.218138         0.148483
 H        -3.598276        -0.157712         0.112483
 H        -3.797147        -1.964378        -1.328024
 H        -1.986536        -1.971436        -1.757764
 H        -2.641267        -2.538751        -0.060354
 H        -2.024579         0.048935        -2.426853
 H        -3.808871         0.406424        -2.210078
 H        -2.284733         3.723262        -1.965062
