19
Iteration:   634charge 0 multiplicity 1
 C         1.570302        -0.138132         0.573892
 C         0.115579        -0.116431         0.324080
 C        -0.960933        -0.106674        -0.239503
 C        -2.416707        -0.122146        -0.286554
 C        -3.203601        -1.448252        -0.083856
 C        -3.035188         0.574298        -1.526547
 O        -2.436988         2.018852        -1.680015
 C        -3.113796         2.670103        -2.639183
 O        -4.102557         2.318427        -3.250699
 H         1.915279        -1.085019         0.189110
 H         1.952148         0.659344        -0.052811
 H         2.127355         0.140252         1.502867
 H        -2.599482         0.583996         0.607099
 H        -3.265448        -1.752140         0.977625
 H        -4.181436        -1.547813        -0.512700
 H        -2.620642        -2.272052        -0.557506
 H        -2.776338         0.043410        -2.428489
 H        -4.099519         0.628309        -1.370752
 H        -2.513514         3.684702        -2.581107
