19
Iteration:  4994charge 0 multiplicity 1
 C         1.290524         0.082725         0.976536
 C        -0.096603        -0.157285         0.583693
 C        -1.110493        -0.269495        -0.098217
 C        -2.410308        -0.079920        -0.609376
 C        -3.279387        -1.421118        -0.795407
 C        -2.118515         0.588435        -2.028790
 O        -3.350502         1.174686        -2.720141
 C        -3.601972         2.432463        -2.326317
 O        -2.961195         3.225256        -1.718507
 H         1.769006        -0.818347         0.584951
 H         1.611840         0.962292         0.352123
 H         1.506319         0.318292         1.995515
 H        -2.914133         0.649663        -0.050911
 H        -4.296600        -1.127995        -1.054452
 H        -2.853873        -2.035165        -1.526083
 H        -3.248221        -1.975975         0.138567
 H        -1.350805         1.338900        -2.037361
 H        -1.964208        -0.259286        -2.702743
 H        -4.572411         2.667977        -2.729811
