19
Iteration:  4823charge 0 multiplicity 1
 C         1.235335        -0.451897         1.125972
 C         0.068390         0.109199         0.358825
 C        -1.096270         0.153039        -0.016563
 C        -2.413866         0.197906        -0.640591
 C        -3.053516        -1.198080        -0.601381
 C        -2.188041         0.539819        -2.120467
 O        -3.401884         1.019841        -2.779889
 C        -3.662832         2.388188        -2.492727
 O        -3.109759         3.050831        -1.675034
 H         2.085371         0.149166         1.008222
 H         0.967772        -0.508448         2.197238
 H         1.500588        -1.504288         0.848362
 H        -3.087889         0.940112        -0.120229
 H        -4.026336        -1.228907        -1.023684
 H        -2.350720        -1.971217        -1.106814
 H        -3.300774        -1.360520         0.459007
 H        -1.405675         1.267349        -2.106394
 H        -1.695034        -0.280729        -2.625161
 H        -4.399908         2.743230        -3.241219
