19
Iteration:  4186charge 0 multiplicity 1
 C         1.307946        -1.253876         1.235680
 C         0.204192        -0.438417         0.554843
 C        -0.743989         0.130938         0.054165
 C        -2.146219         0.336313        -0.510281
 C        -2.572055        -0.969398        -1.250072
 C        -2.290861         1.639457        -1.264747
 O        -3.699630         1.972616        -1.339350
 C        -4.114787         2.153546        -2.594892
 O        -3.456232         2.174852        -3.601785
 H         1.362685        -1.113440         2.344313
 H         1.277068        -2.366493         0.899144
 H         2.235303        -0.710690         0.884957
 H        -2.797301         0.346897         0.379873
 H        -2.341977        -0.735079        -2.249331
 H        -1.781397        -1.765264        -0.940775
 H        -3.560911        -1.284609        -0.937207
 H        -1.847073         2.610547        -0.757765
 H        -1.831126         1.678111        -2.262681
 H        -5.198912         2.030364        -2.641597
