19
Iteration:  2559
 C         1.248515         0.433006         0.631145
 C        -0.044193         0.074243         0.057428
 C        -1.244793        -0.244260        -0.191126
 C        -2.605544        -0.394236        -0.454125
 C        -3.036161        -1.873277        -0.678185
 C        -3.136354         0.414053        -1.624936
 O        -3.318842         1.868139        -1.252180
 C        -2.917756         2.780138        -2.104078
 O        -2.670670         2.566758        -3.257175
 H         2.095184        -0.228781         0.702350
 H         1.847574         1.274095         0.173023
 H         1.090287         0.691341         1.628503
 H        -3.217925        -0.117419         0.429663
 H        -4.132783        -1.901374        -0.822203
 H        -2.455904        -2.174263        -1.594165
 H        -2.698962        -2.442742         0.214424
 H        -2.398439         0.256471        -2.462575
 H        -4.068584        -0.085053        -1.792239
 H        -2.607693         3.728026        -1.598150
