19
Iteration:  3721
 C         1.492912        -0.858799         0.879991
 C         0.204440        -0.560373         0.428600
 C        -0.884561        -0.130963         0.121998
 C        -2.261593         0.222087        -0.179085
 C        -2.918189        -0.966025        -1.072478
 C        -2.262726         1.483426        -1.082019
 O        -3.604683         1.787706        -1.495827
 C        -4.012773         2.193621        -2.675687
 O        -3.310984         2.443662        -3.613793
 H         1.747704        -0.380895         1.934575
 H         1.660644        -1.881857         1.121423
 H         2.288763        -0.598207         0.233328
 H        -2.963462         0.347483         0.646945
 H        -3.744379        -0.437680        -1.508298
 H        -2.314365        -1.321899        -1.937719
 H        -3.146210        -1.811329        -0.448173
 H        -1.734138         2.397699        -0.540811
 H        -1.598692         1.234676        -1.929190
 H        -5.075671         2.379553        -2.521692
