19
Iteration:   811charge 0 multiplicity 1
 C         1.472816        -0.105377         0.650894
 C         0.066839        -0.262914         0.274351
 C        -1.100857        -0.028436         0.006905
 C        -2.516276         0.071934        -0.420478
 C        -3.186090        -1.392605        -0.170056
 C        -2.551912         0.471647        -1.888770
 O        -2.244628         1.902093        -2.026956
 C        -3.191758         2.645080        -2.544678
 O        -4.367045         2.361944        -2.657060
 H         2.018488         0.830993         0.903266
 H         1.773887        -0.794348         1.432676
 H         1.987586        -0.345531        -0.387196
 H        -3.038309         0.874314         0.142472
 H        -3.543325        -1.398407         0.843905
 H        -4.088164        -1.432006        -0.746890
 H        -2.471026        -2.176432        -0.162449
 H        -1.819908        -0.134995        -2.419082
 H        -3.523609         0.313116        -2.302448
 H        -2.654474         3.477405        -2.894874
