19
Iteration:  1182charge 0 multiplicity 1
 C         0.966398         0.886617         0.484196
 C        -0.274055         0.349265         0.067924
 C        -1.435332        -0.081215        -0.033188
 C        -2.781616        -0.361041        -0.645652
 C        -3.355220        -1.863305        -0.746364
 C        -2.733755         0.126715        -2.091565
 O        -2.060039         1.383286        -2.585711
 C        -2.525429         2.491100        -1.973963
 O        -3.559036         2.746852        -1.347358
 H         0.993725         2.042062         0.377139
 H         0.936543         0.813650         1.584837
 H         1.925238         0.506140         0.067359
 H        -3.519497         0.230323        -0.096415
 H        -2.614315        -2.524702        -0.275591
 H        -4.270800        -1.795430        -0.128466
 H        -3.570090        -2.265374        -1.733615
 H        -2.151654        -0.613225        -2.611794
 H        -3.725864         0.097231        -2.490065
 H        -1.631714         3.075645        -2.113772
