19
Iteration:  1611charge 0 multiplicity 1
 C         1.400954        -0.011471         0.864497
 C         0.046234        -0.112044         0.357970
 C        -1.160498         0.023445         0.166042
 C        -2.483642        -0.095508        -0.489604
 C        -3.167115        -1.435627        -0.617581
 C        -2.395837         0.487026        -1.939973
 O        -2.204850         1.875868        -1.959530
 C        -3.293749         2.683899        -2.333349
 O        -4.341394         2.277726        -2.762013
 H         1.970332         0.697794         0.181189
 H         1.425515         0.336509         1.942286
 H         1.733018        -0.984986         0.734661
 H        -3.207786         0.548327         0.105767
 H        -2.627104        -2.166755         0.066152
 H        -4.205544        -1.237181        -0.385197
 H        -3.333673        -1.915193        -1.598929
 H        -1.502278         0.062287        -2.353676
 H        -3.228187         0.149393        -2.527424
 H        -2.868633         3.804101        -2.349420
