19
Iteration:  3390
 C         1.113042        -0.017069         1.051424
 C        -0.192834        -0.036232         0.432317
 C        -1.343060        -0.095001         0.021085
 C        -2.651986        -0.359652        -0.523927
 C        -2.614297        -1.911254        -0.974547
 C        -2.909071         0.610450        -1.692828
 O        -2.296481         1.999414        -1.603946
 C        -2.874667         2.841338        -2.441018
 O        -3.940858         2.626281        -3.006296
 H         1.672694         0.503124         0.189563
 H         1.077054         0.594600         1.917342
 H         1.505972        -1.020624         1.401103
 H        -3.368936        -0.119632         0.327553
 H        -3.494132        -2.235360        -1.511831
 H        -1.743412        -2.189313        -1.560923
 H        -2.512383        -2.564312        -0.083572
 H        -2.625903         0.195416        -2.620946
 H        -3.987289         0.858014        -1.864358
 H        -2.275893         3.821696        -2.530642
