19
Iteration:   221
 C         1.104157         0.496820        -0.923791
 C        -0.337551         0.445019        -0.439144
 C        -1.471525         0.136656        -0.190848
 C        -2.929524        -0.072625         0.030154
 C        -3.288636        -1.521197         0.244145
 C        -3.484805         0.411436        -1.234032
 O        -3.206764         1.765678        -1.204756
 C        -2.498124         2.408258        -2.203106
 O        -1.749223         1.773438        -2.938455
 H         1.332640        -0.466483        -1.654269
 H         1.352625         1.175724        -1.678360
 H         1.669025         0.674725        -0.081877
 H        -3.319890         0.463442         1.005338
 H        -2.477261        -1.893693         0.868531
 H        -4.094584        -1.502044         0.954647
 H        -3.505017        -2.241903        -0.541950
 H        -2.886441        -0.035621        -2.013100
 H        -4.539128         0.249929        -1.514636
 H        -2.546228         3.512461        -2.074288
