19
Iteration:  1870charge 0 multiplicity 1
 C         1.362526         0.170058         0.560594
 C        -0.048016        -0.014602         0.291235
 C        -1.225095         0.016022         0.097448
 C        -2.516897        -0.199175        -0.354589
 C        -2.956214        -1.703102        -0.689911
 C        -3.043642         0.485353        -1.524589
 O        -2.957486         1.930711        -1.312626
 C        -3.009853         2.696754        -2.340324
 O        -3.272677         2.315973        -3.454456
 H         1.546288         0.277803         1.638286
 H         2.046937        -0.630820         0.323882
 H         1.745479         1.157088         0.219076
 H        -3.180729        -0.085061         0.492832
 H        -2.799907        -2.132648        -1.709284
 H        -2.361912        -2.403247        -0.131593
 H        -3.977414        -1.664492        -0.279747
 H        -2.414635         0.213994        -2.418845
 H        -4.108651         0.298023        -1.778846
 H        -2.786808         3.839523        -2.197166
