19
Iteration:  2396
 C         1.268124         0.423339         0.281707
 C        -0.241009         0.221709         0.254124
 C        -1.463266         0.025614        -0.028424
 C        -2.772006        -0.424127        -0.369570
 C        -2.800756        -1.963867        -0.708006
 C        -3.413221         0.480779        -1.505637
 O        -3.488200         1.879967        -1.291966
 C        -2.831485         2.732969        -2.266713
 O        -2.078910         2.391287        -3.139002
 H         1.651401         1.458586        -0.018939
 H         1.674160         0.352607         1.291280
 H         1.564434        -0.657657        -0.098844
 H        -3.390232        -0.421503         0.528615
 H        -1.866528        -2.441697        -0.230419
 H        -3.696326        -2.456245        -0.220649
 H        -2.783277        -2.163693        -1.814400
 H        -2.758952         0.368992        -2.440094
 H        -4.430158         0.118289        -1.666423
 H        -3.052109         3.784960        -1.950284
