19
Iteration:  4372
 C         1.428480        -0.293847         0.999581
 C         0.001674        -0.438952         0.618257
 C        -1.159716        -0.453002         0.227565
 C        -2.458080        -0.119677        -0.464717
 C        -2.820595        -1.430036        -1.343430
 C        -2.156874         1.157246        -1.272375
 O        -3.369156         1.985259        -1.278843
 C        -3.797687         2.554264        -2.489172
 O        -3.342335         2.522098        -3.618174
 H         2.004947         0.253667         0.152705
 H         1.592689         0.467187         1.882897
 H         1.883159        -1.184495         1.341251
 H        -3.320514         0.145727         0.235401
 H        -3.858578        -1.655965        -1.420777
 H        -2.754495        -1.359570        -2.527523
 H        -2.215655        -2.355450        -1.110364
 H        -1.268134         1.738894        -0.775067
 H        -1.710995         1.099552        -2.249615
 H        -4.656385         3.246706        -2.118123
