19
Iteration:  1454charge 0 multiplicity 1
 C         1.080436         0.153491         1.125079
 C        -0.194947         0.160896         0.478664
 C        -1.065452         0.009434        -0.345963
 C        -2.523552        -0.051004        -0.859401
 C        -2.981065        -1.469538        -0.495536
 C        -2.652581         0.279141        -2.279647
 O        -2.225140         1.567817        -2.648906
 C        -3.088533         2.545766        -2.329963
 O        -4.016712         2.537252        -1.555819
 H         1.081840         0.172973         2.240963
 H         1.738506        -0.671277         0.913048
 H         1.645917         1.096692         0.757701
 H        -3.121077         0.718356        -0.285761
 H        -2.351802        -2.267475        -0.917196
 H        -2.764287        -1.648932         0.595040
 H        -4.049470        -1.633349        -0.780854
 H        -2.048282        -0.379367        -2.933874
 H        -3.727304         0.186171        -2.579031
 H        -2.646815         3.436575        -2.881000
