19
Iteration:  2752
 C         1.155828         0.378461         0.921944
 C        -0.055930         0.080776         0.252210
 C        -1.166945        -0.305663        -0.182315
 C        -2.582132        -0.480259        -0.442360
 C        -2.999532        -1.893524        -1.044935
 C        -3.226649         0.536765        -1.401262
 O        -2.718219         1.911345        -1.244829
 C        -2.639199         2.720011        -2.362609
 O        -3.396254         2.637300        -3.316335
 H         1.093431         1.237913         1.629078
 H         1.478892        -0.561180         1.363203
 H         1.903519         0.767649         0.086261
 H        -2.971086        -0.319669         0.578459
 H        -4.055987        -1.770496        -1.450230
 H        -2.283345        -2.163250        -1.816680
 H        -3.040173        -2.453370        -0.145477
 H        -3.117209         0.203172        -2.477333
 H        -4.285677         0.540466        -1.250694
 H        -1.928167         3.537905        -2.061409
