19
Iteration:  1105charge 0 multiplicity 1
 C         1.070562         0.571994         0.779720
 C        -0.201306         0.309411         0.113378
 C        -1.349873        -0.035796        -0.228765
 C        -2.700903        -0.155571        -0.757458
 C        -3.190053        -1.528490        -0.476981
 C        -2.790474         0.174183        -2.264292
 O        -2.196456         1.386895        -2.727784
 C        -2.670901         2.500556        -2.027485
 O        -3.689899         2.506346        -1.342833
 H         0.833734         1.186267         1.762673
 H         1.787404        -0.259889         0.993194
 H         1.676310         1.279397         0.073147
 H        -3.348014         0.533400        -0.197241
 H        -3.622036        -1.497904         0.560917
 H        -3.921934        -1.880053        -1.239938
 H        -2.419283        -2.301512        -0.538317
 H        -2.281684        -0.622663        -2.793862
 H        -3.823143         0.202185        -2.560599
 H        -1.914192         3.253828        -2.211325
