19
Iteration:  1256charge 0 multiplicity 1
 C         0.927997         0.909843         0.426408
 C        -0.434871         0.339511         0.191835
 C        -1.538832        -0.140032        -0.173081
 C        -2.834521        -0.381421        -0.751747
 C        -3.148596        -2.006656        -0.643663
 C        -2.869037         0.263961        -2.125690
 O        -1.958563         1.399360        -2.433116
 C        -2.417292         2.618408        -1.936678
 O        -3.552690         2.698549        -1.454217
 H         1.623138         0.982401        -0.353415
 H         0.903119         1.813297         0.961461
 H         1.453962         0.212208         1.153349
 H        -3.580310         0.169416        -0.111583
 H        -2.874757        -2.754120        -1.429965
 H        -2.598659        -2.260047         0.301355
 H        -4.214374        -2.013499        -0.476877
 H        -2.516825        -0.475270        -2.850680
 H        -3.916599         0.472959        -2.359686
 H        -1.519686         3.269503        -2.098500
