19
Iteration:  2793charge 0 multiplicity 1
 C         1.083278         0.237140         1.126204
 C         0.055251        -0.135212         0.197323
 C        -1.074234        -0.227543        -0.300915
 C        -2.482858        -0.357957        -0.495706
 C        -2.933052        -1.749012        -0.957856
 C        -3.253650         0.618645        -1.466203
 O        -2.685536         1.968633        -1.304356
 C        -2.841068         2.834249        -2.336235
 O        -3.459585         2.460505        -3.312603
 H         1.191062         1.298740         1.186886
 H         1.198515        -0.407638         2.006199
 H         1.964476         0.104341         0.504792
 H        -2.999766        -0.315987         0.487990
 H        -4.047272        -1.998873        -1.093585
 H        -2.519194        -2.089340        -1.967996
 H        -2.592470        -2.629806        -0.392056
 H        -3.097436         0.372392        -2.494044
 H        -4.286255         0.580239        -1.053388
 H        -2.343962         3.812538        -2.153055
