19
Iteration:   734
 C         1.448920        -0.285648         0.593900
 C         0.102351         0.018435         0.429236
 C        -1.039789         0.108995        -0.000866
 C        -2.401800        -0.050751        -0.499130
 C        -3.044109        -1.351927        -0.068569
 C        -2.767863         0.448929        -1.840285
 O        -2.409418         1.792425        -1.887483
 C        -3.185839         2.685973        -2.509544
 O        -4.268857         2.411331        -2.982693
 H         1.670423        -0.649177         1.617367
 H         1.592704        -1.164902        -0.064629
 H         2.333060         0.432318         0.279339
 H        -2.978693         0.802528         0.006285
 H        -2.481657        -1.698400         0.781193
 H        -4.098131        -1.407303         0.139344
 H        -2.986098        -2.073079        -0.904435
 H        -2.318967        -0.055454        -2.699823
 H        -3.835750         0.311277        -1.913998
 H        -2.617839         3.591709        -2.218659
