19
Iteration:  2635
 C         1.075218         0.552676         0.151112
 C        -0.277082         0.093969         0.409235
 C        -1.492788        -0.233571         0.272618
 C        -2.794079        -0.488879        -0.430241
 C        -3.028786        -1.936672        -0.813481
 C        -2.715144         0.400130        -1.664203
 O        -2.785114         1.733107        -1.170196
 C        -2.923334         2.754334        -2.084111
 O        -2.874877         2.757828        -3.293223
 H         1.772447         0.045718         0.871323
 H         1.658025         0.200004        -0.798415
 H         1.287441         1.570727         0.346636
 H        -3.770375        -0.214873        -0.001404
 H        -3.757179        -2.126245        -1.601518
 H        -2.054583        -2.396358        -1.140684
 H        -3.397490        -2.374248         0.126752
 H        -1.851660         0.171977        -2.355450
 H        -3.600412         0.102226        -2.212100
 H        -3.062788         3.700046        -1.526151
