19
Iteration:  2866
 C         1.362850        -0.161683         0.970483
 C        -0.048407         0.045256         0.460017
 C        -1.247535        -0.109510         0.127499
 C        -2.555351        -0.310774        -0.511205
 C        -2.804047        -1.755286        -0.810809
 C        -2.773713         0.574337        -1.777232
 O        -2.891601         1.930202        -1.354055
 C        -3.150216         2.812219        -2.322344
 O        -3.591850         2.686581        -3.445043
 H         1.964635         0.428311         0.226564
 H         1.597658        -0.077231         2.121674
 H         1.829646        -1.101066         0.698961
 H        -3.313328         0.111875         0.177011
 H        -3.777630        -2.031859        -1.063154
 H        -2.310777        -2.111449        -1.716742
 H        -2.579652        -2.554198        -0.074888
 H        -1.901910         0.415440        -2.423414
 H        -3.737786         0.386521        -2.403100
 H        -2.672395         3.780144        -2.026550
