19
Iteration:   796
 C         1.506912        -0.193329         0.584587
 C         0.080208        -0.221783         0.191803
 C        -1.125963        -0.004675         0.199031
 C        -2.482285        -0.001336        -0.412771
 C        -3.124403        -1.296637        -0.119622
 C        -2.587601         0.441190        -1.910732
 O        -2.229765         1.830728        -2.042061
 C        -3.210074         2.701367        -2.518198
 O        -4.386079         2.403051        -2.759203
 H         1.281194         0.805220         1.193136
 H         1.668141        -0.983658         1.369351
 H         2.293426        -0.140349        -0.085596
 H        -3.090093         0.713313         0.099669
 H        -3.448473        -1.372047         0.956880
 H        -3.944123        -1.587506        -0.840270
 H        -2.299601        -2.045277        -0.375620
 H        -1.884315        -0.055126        -2.575715
 H        -3.641580         0.232275        -2.190128
 H        -2.990211         3.824080        -2.543484
