19
Iteration:  4927
 C         1.163734         0.173245         1.264697
 C         0.154837        -0.155363         0.271727
 C        -0.954419        -0.275075        -0.250880
 C        -2.342867        -0.001373        -0.736061
 C        -3.488093        -1.079700        -0.738437
 C        -2.142307         0.465180        -2.206382
 O        -3.428925         1.095905        -2.743487
 C        -3.642373         2.340598        -2.254049
 O        -2.876161         2.987003        -1.521970
 H         2.167527         0.090835         0.723028
 H         1.108777         1.239818         1.550492
 H         1.201442        -0.408831         2.182500
 H        -2.720584         0.720455        -0.049330
 H        -4.391698        -0.440309        -0.940826
 H        -3.388604        -1.726013        -1.544350
 H        -3.455560        -1.619216         0.183133
 H        -1.238924         1.165860        -2.286682
 H        -2.108117        -0.535906        -2.674276
 H        -4.489179         2.790069        -2.734405
