19
Iteration:  2271charge 0 multiplicity 1
 C         0.859922         1.087093         0.052878
 C        -0.333340         0.219058        -0.172124
 C        -1.423943        -0.217505        -0.229144
 C        -2.856172        -0.562888        -0.315169
 C        -3.298306        -2.039927        -0.500959
 C        -3.328416         0.291230        -1.517884
 O        -3.188177         1.731185        -1.204223
 C        -2.425468         2.603127        -1.955016
 O        -1.793513         2.460697        -2.991936
 H         0.900299         1.480948         1.161834
 H         1.819490         0.541857        -0.338167
 H         0.846209         1.979830        -0.621338
 H        -3.400255        -0.081613         0.511677
 H        -3.965615        -2.383933         0.310396
 H        -3.723074        -2.251235        -1.529895
 H        -2.376233        -2.705241        -0.586744
 H        -2.764774         0.144539        -2.422550
 H        -4.439471         0.181602        -1.666105
 H        -2.697841         3.680778        -1.652436
