19
Iteration:  3057
 C         1.338229        -0.164595         1.097455
 C         0.130919        -0.311271         0.351405
 C        -1.040667        -0.187888        -0.047084
 C        -2.518857        -0.211299        -0.535134
 C        -2.761098        -1.704755        -0.815366
 C        -2.922288         0.647089        -1.746754
 O        -2.999467         2.018478        -1.321014
 C        -3.319473         2.918488        -2.317923
 O        -3.506878         2.606558        -3.474222
 H         1.656777        -1.112537         1.589854
 H         2.294763         0.293155         0.694322
 H         1.284524         0.504325         1.971574
 H        -3.068827         0.021232         0.413745
 H        -3.811011        -1.825740        -1.099608
 H        -2.148122        -1.902883        -1.662554
 H        -2.546828        -2.395618         0.009734
 H        -2.194807         0.486850        -2.613152
 H        -3.870072         0.450441        -2.196866
 H        -3.602425         3.892627        -1.866821
