19
Iteration:  2880charge 0 multiplicity 1
 C         1.340247        -0.181036         0.834809
 C        -0.066780        -0.084783         0.571957
 C        -1.207913        -0.043163         0.138324
 C        -2.565074        -0.257594        -0.445700
 C        -2.792359        -1.783667        -0.810621
 C        -2.667390         0.493516        -1.802913
 O        -2.939033         1.898977        -1.413808
 C        -3.165256         2.902911        -2.332573
 O        -3.605333         2.717382        -3.440686
 H         2.060668         0.441569         0.329093
 H         1.474678         0.269136         1.921136
 H         1.588917        -1.245478         0.879442
 H        -3.365572         0.069320         0.253432
 H        -3.787306        -1.789531        -1.287075
 H        -1.964848        -2.122192        -1.439524
 H        -2.707524        -2.297980         0.107803
 H        -1.728158         0.575434        -2.312764
 H        -3.506208         0.031828        -2.401594
 H        -3.094301         3.897561        -1.855327
