19
Iteration:  3846
 C         1.424916        -0.906926         0.565390
 C         0.139936        -0.369903         0.343753
 C        -0.994150         0.006845         0.268105
 C        -2.344151         0.141112        -0.098239
 C        -2.741293        -1.028096        -1.101379
 C        -2.405942         1.553211        -0.847057
 O        -3.838517         1.919627        -1.402626
 C        -3.863539         2.242367        -2.778890
 O        -2.966775         2.133200        -3.613548
 H         2.187571        -0.282450         0.191193
 H         1.602133        -1.062584         1.711536
 H         1.776232        -1.912019         0.223664
 H        -3.050746         0.187970         0.791210
 H        -3.844789        -0.972520        -1.219144
 H        -2.256349        -0.773145        -2.034072
 H        -2.470750        -1.934495        -0.578375
 H        -2.277693         2.276199        -0.092395
 H        -1.654817         1.688209        -1.663844
 H        -4.953718         2.500258        -2.932895
