19
Iteration:  1125charge 0 multiplicity 1
 C         1.045843         0.716506         0.696483
 C        -0.258735         0.237144         0.257328
 C        -1.307589         0.105345        -0.313355
 C        -2.721421        -0.240020        -0.853926
 C        -3.286841        -1.664477        -0.425303
 C        -2.854086         0.121939        -2.343873
 O        -2.085191         1.409064        -2.562730
 C        -2.641596         2.501439        -2.040565
 O        -3.607827         2.504640        -1.311878
 H         1.018934         1.524920         1.454084
 H         1.601951        -0.127206         1.084992
 H         1.715827         0.991124        -0.238712
 H        -3.308476         0.593865        -0.452313
 H        -3.314173        -1.782811         0.661848
 H        -4.285342        -1.801069        -0.823702
 H        -2.788930        -2.474592        -0.925611
 H        -2.375676        -0.455137        -3.112689
 H        -3.871862         0.342839        -2.596027
 H        -2.212350         3.452337        -2.392135
