19
Iteration:   538
 C         1.503207        -0.046109         0.100221
 C         0.083803         0.046142         0.156144
 C        -1.163364        -0.097053         0.156654
 C        -2.693189        -0.102041        -0.142593
 C        -3.113282        -1.537549         0.083440
 C        -3.009349         0.533229        -1.553701
 O        -2.681054         1.894311        -1.501274
 C        -3.051201         2.697492        -2.497883
 O        -3.565625         2.357748        -3.515852
 H         1.657208         0.215494        -0.975798
 H         2.071302         0.578027         0.789011
 H         2.159472        -1.019504         0.305692
 H        -3.149460         0.535965         0.560671
 H        -2.611131        -1.981274         0.984159
 H        -4.208041        -1.703610         0.177616
 H        -2.820389        -2.205049        -0.791492
 H        -2.162105        -0.033678        -2.079337
 H        -4.011981         0.254653        -1.909904
 H        -2.880358         3.633759        -2.059968
