19
Iteration:  1941charge 0 multiplicity 1
 C         1.299160         0.469904         0.299435
 C        -0.122283         0.177281         0.244026
 C        -1.299354        -0.129616         0.067819
 C        -2.767002        -0.394994        -0.331947
 C        -3.068071        -1.913699        -0.463578
 C        -3.089473         0.395405        -1.625411
 O        -3.024953         1.770087        -1.244831
 C        -2.880344         2.738809        -2.236457
 O        -2.803976         2.548323        -3.434168
 H         1.498062         1.518648         0.739387
 H         1.856557        -0.271651         0.984878
 H         1.840236         0.522799        -0.695181
 H        -3.480420        -0.004533         0.409061
 H        -4.071516        -2.255825        -0.080262
 H        -2.987938        -2.304785        -1.506569
 H        -2.321435        -2.324692         0.262601
 H        -2.266489         0.250990        -2.332887
 H        -4.050968         0.169597        -2.092873
 H        -2.835401         3.720613        -1.903204
