19
Iteration:  1550charge 0 multiplicity 1
 C         1.260219        -0.035355         0.973517
 C        -0.075699         0.064902         0.546100
 C        -1.104950         0.088192        -0.106777
 C        -2.465471        -0.167741        -0.717391
 C        -3.100141        -1.514652        -0.414314
 C        -2.471549         0.384518        -2.183720
 O        -2.123985         1.834432        -2.211758
 C        -3.192556         2.726582        -2.378261
 O        -4.357642         2.344230        -2.282632
 H         1.725630         0.907418         1.129792
 H         1.588690        -0.605815         1.829920
 H         1.894856        -0.375084         0.050319
 H        -3.148205         0.502728        -0.196130
 H        -4.150468        -1.490103        -0.094219
 H        -3.239514        -2.101965        -1.371657
 H        -2.409638        -2.009751         0.261684
 H        -1.739381        -0.092377        -2.880039
 H        -3.529382         0.291559        -2.591784
 H        -2.712805         3.789634        -2.486198
