19
Iteration:  3548
 C         1.441162        -0.228318         1.302154
 C         0.224661        -0.326703         0.509019
 C        -0.907980        -0.378881        -0.063410
 C        -2.337773        -0.179848        -0.651646
 C        -3.133154        -1.425078        -0.899971
 C        -2.452199         0.728585        -1.925433
 O        -3.025160         2.017790        -1.378055
 C        -3.673300         2.798752        -2.260636
 O        -3.667370         2.558585        -3.451395
 H         1.671509        -1.299304         1.556937
 H         2.402226         0.183251         0.776854
 H         1.206100         0.259978         2.256508
 H        -2.863653         0.446909         0.133225
 H        -4.198973        -1.206771        -1.028921
 H        -2.577383        -2.001931        -1.699746
 H        -3.102603        -1.934604         0.055651
 H        -1.476063         0.752007        -2.414305
 H        -3.168798         0.234010        -2.480159
 H        -3.977445         3.718067        -1.652508
