19
Iteration:   212
 C         0.979801         0.493230        -0.905334
 C        -0.341887         0.458082        -0.536040
 C        -1.473427         0.144897        -0.194478
 C        -2.883520        -0.147375         0.043488
 C        -3.260298        -1.546806         0.322749
 C        -3.449263         0.396140        -1.277816
 O        -3.248074         1.901737        -1.212239
 C        -2.451447         2.358988        -2.179513
 O        -1.715458         1.763384        -2.915925
 H         1.201610        -0.459118        -1.528802
 H         1.196423         1.460531        -1.486439
 H         1.810823         0.440345        -0.151501
 H        -3.243634         0.527229         0.826617
 H        -2.471385        -2.097451         0.898629
 H        -4.209016        -1.570087         0.916465
 H        -3.497267        -2.166317        -0.583954
 H        -2.794112        -0.064363        -2.066915
 H        -4.531269         0.198128        -1.486452
 H        -2.666075         3.421694        -2.183452
