19
Iteration:  3835charge 0 multiplicity 1
 C         1.496679        -0.964438         0.678489
 C         0.211149        -0.372548         0.255743
 C        -0.955664        -0.006253         0.237779
 C        -2.375329         0.212327        -0.208860
 C        -2.789141        -0.991730        -1.025412
 C        -2.503387         1.608985        -0.849289
 O        -3.848740         1.855715        -1.387852
 C        -3.827996         2.214830        -2.748099
 O        -2.967725         2.156487        -3.595289
 H         2.275013        -0.277853         0.505629
 H         1.465739        -1.107418         1.843650
 H         1.424323        -1.856182         0.006655
 H        -2.952810         0.174371         0.778084
 H        -3.882473        -1.233525        -1.081855
 H        -2.502983        -0.840033        -2.063734
 H        -2.191267        -1.893476        -0.878120
 H        -2.248181         2.464084        -0.274916
 H        -1.811231         1.566484        -1.725879
 H        -4.824713         2.618324        -3.101958
