19
Iteration:  2378
 C         1.204187         0.499936         0.308445
 C        -0.203629         0.254036         0.080370
 C        -1.416454         0.047396        -0.028499
 C        -2.836218        -0.392030        -0.319368
 C        -2.952967        -1.974519        -0.676094
 C        -3.353180         0.321963        -1.568857
 O        -3.349792         1.832084        -1.309348
 C        -2.771538         2.695395        -2.148677
 O        -2.074291         2.418975        -3.092504
 H         1.203934         1.560596         0.101610
 H         1.472424         0.382872         1.384785
 H         1.761147        -0.024196        -0.456500
 H        -3.528387        -0.089866         0.502617
 H        -2.105655        -2.527053        -0.421791
 H        -3.841895        -2.360432        -0.234376
 H        -2.907270        -2.129592        -1.738480
 H        -2.832811         0.128284        -2.497057
 H        -4.413669         0.213444        -1.812471
 H        -3.257968         3.636325        -1.789562
