19
Iteration:  3968
 C         1.460907        -0.360687         0.729871
 C         0.122731        -0.450108         0.281465
 C        -1.072264        -0.425848         0.027489
 C        -2.441410        -0.046229        -0.338841
 C        -3.179962        -1.096024        -1.343814
 C        -2.225942         1.565854        -0.807328
 O        -3.498110         2.262607        -1.209229
 C        -3.680014         2.344556        -2.599733
 O        -3.115507         1.729331        -3.519840
 H         2.109923        -0.801402         0.042429
 H         1.811494         0.704770         1.033315
 H         1.677722        -0.861635         1.749970
 H        -3.063201        -0.039575         0.616384
 H        -4.168943        -0.694478        -1.628929
 H        -2.345987        -1.342108        -1.982355
 H        -3.357948        -1.911860        -0.658119
 H        -1.804106         2.208426        -0.088220
 H        -1.614417         1.576524        -1.714623
 H        -4.468657         3.119437        -2.733181
