19
Iteration:  2234charge 0 multiplicity 1
 C         0.836360         1.047158        -0.118161
 C        -0.427922         0.378221        -0.117187
 C        -1.521353        -0.227134        -0.029562
 C        -2.920764        -0.506600        -0.339962
 C        -3.103195        -2.004724        -0.632934
 C        -3.304774         0.383393        -1.557127
 O        -3.252648         1.838228        -1.220136
 C        -2.356540         2.575198        -1.865838
 O        -1.788910         2.174932        -2.878685
 H         1.496354         0.808013         0.759274
 H         1.483732         0.594710        -0.940259
 H         0.695836         2.101435        -0.433942
 H        -3.539044        -0.199754         0.553717
 H        -4.023201        -2.519924        -0.310444
 H        -3.099073        -2.124669        -1.715322
 H        -2.196989        -2.424342        -0.242633
 H        -2.744175         0.112843        -2.513709
 H        -4.373649         0.201265        -1.684240
 H        -2.640525         3.713251        -1.572570
