19
Iteration:  1298charge 0 multiplicity 1
 C         0.950895         0.808735         0.619800
 C        -0.329517         0.330113         0.145488
 C        -1.466314        -0.019173        -0.217737
 C        -2.789183        -0.279097        -0.715639
 C        -3.122839        -1.789001        -0.751822
 C        -2.795429         0.098322        -2.178354
 O        -2.156199         1.330992        -2.430297
 C        -2.511083         2.438773        -1.921483
 O        -3.568181         2.798695        -1.426592
 H         1.710918         0.264311         0.087600
 H         1.213710         1.862379         0.412934
 H         1.160415         0.431249         1.708264
 H        -3.540859         0.277266        -0.116908
 H        -3.796625        -2.000137        -1.624675
 H        -2.148111        -2.299050        -0.735313
 H        -3.599329        -2.112388         0.168470
 H        -2.188565        -0.660294        -2.729728
 H        -3.845983         0.136683        -2.610806
 H        -1.822588         3.190449        -2.222626
