19
Iteration:   778
 C         1.445999        -0.233291         0.668488
 C         0.103693        -0.124358         0.147435
 C        -1.120461         0.048157         0.149934
 C        -2.445355         0.087289        -0.326260
 C        -3.077811        -1.394369        -0.108390
 C        -2.597184         0.388066        -1.863537
 O        -2.277214         1.812127        -2.124101
 C        -3.267933         2.696834        -2.358626
 O        -4.346501         2.453170        -2.919414
 H         1.703579         0.358685         1.544244
 H         1.758992        -1.287509         0.733942
 H         2.184287        -0.058208        -0.230224
 H        -3.065649         0.832546         0.242530
 H        -3.269370        -1.464441         0.942765
 H        -4.024677        -1.551757        -0.603797
 H        -2.547345        -2.240430        -0.508028
 H        -1.950496        -0.219771        -2.490254
 H        -3.619109         0.318264        -2.174808
 H        -2.912100         3.684520        -2.117422
