19
Iteration:  4617charge 0 multiplicity 1
 C         1.444434        -0.919362         0.848595
 C         0.132754        -0.384995         0.615051
 C        -0.993459         0.012162         0.317570
 C        -2.342753         0.190482        -0.165047
 C        -2.740643        -1.190291        -0.792797
 C        -2.305817         1.297000        -1.361158
 O        -3.538606         1.155417        -2.202131
 C        -3.859429         2.209577        -2.970620
 O        -3.385891         3.339488        -2.873913
 H         1.334191        -1.379651         1.799657
 H         1.714256        -1.592598         0.064402
 H         2.328191        -0.199699         0.925932
 H        -2.874323         0.501181         0.750718
 H        -3.799111        -1.322162        -0.841887
 H        -2.341286        -1.293067        -1.801474
 H        -2.442376        -2.050792        -0.256372
 H        -2.224519         2.355372        -1.078543
 H        -1.576483         0.886991        -2.114819
 H        -4.590994         1.845439        -3.767569
