19
Iteration:   835
 C         1.461192        -0.110096         0.577145
 C         0.015140        -0.001585         0.491198
 C        -1.071249        -0.145323        -0.084046
 C        -2.415140        -0.048223        -0.436298
 C        -3.321100        -1.311940        -0.305894
 C        -2.537538         0.480422        -1.869832
 O        -2.161813         1.867684        -2.061610
 C        -3.189435         2.648666        -2.630331
 O        -4.382224         2.310717        -2.496888
 H         2.066087         0.760334         0.484239
 H         1.625075        -0.322072         1.636121
 H         2.061107        -0.877481        -0.110187
 H        -2.747453         0.796894         0.256056
 H        -3.376192        -1.486735         0.764990
 H        -4.349749        -1.240414        -0.624357
 H        -2.774401        -2.176972        -0.549696
 H        -1.999925        -0.236735        -2.532935
 H        -3.615771         0.445570        -2.152595
 H        -2.714800         3.569374        -2.773901
