19
Iteration:  4019charge 0 multiplicity 1
 C         1.419010        -0.478026         0.963331
 C         0.152688        -0.318603         0.260576
 C        -0.994133        -0.375984        -0.116021
 C        -2.321558         0.031031        -0.439210
 C        -3.234528        -0.946020        -1.357000
 C        -2.247289         1.467102        -0.944869
 O        -3.465889         2.208853        -1.149288
 C        -3.738046         2.283959        -2.555759
 O        -3.183971         1.698477        -3.487258
 H         2.013522        -1.436473         0.835002
 H         2.160760         0.316629         0.747541
 H         1.262660        -0.348182         2.001657
 H        -2.730166         0.057700         0.552173
 H        -3.895790        -1.067779        -0.470505
 H        -3.456567        -0.394633        -2.215968
 H        -2.723908        -1.880232        -1.682660
 H        -1.617109         2.101375        -0.314543
 H        -1.679870         1.454881        -2.004430
 H        -4.603191         2.925570        -2.635117
