19
Iteration:  1500
 C         1.213417         0.057889         1.098311
 C        -0.028410         0.045153         0.283464
 C        -1.159390         0.138851        -0.094409
 C        -2.485816         0.014510        -0.587766
 C        -3.024392        -1.563490        -0.553452
 C        -2.571237         0.318836        -2.166079
 O        -2.197008         1.657187        -2.634838
 C        -3.119339         2.627250        -2.304062
 O        -4.248734         2.474990        -1.925656
 H         1.076351         0.654447         2.081971
 H         1.356231        -0.921414         1.633632
 H         2.213800         0.343516         0.808122
 H        -3.183187         0.641950         0.052456
 H        -3.530779        -1.848120        -1.533714
 H        -2.111477        -2.243851        -0.525035
 H        -3.803850        -1.554369         0.286191
 H        -1.764233        -0.283651        -2.612957
 H        -3.536217         0.032568        -2.543167
 H        -2.708300         3.630169        -2.432375
