19
Iteration:  3095charge 0 multiplicity 1
 C         1.314844        -0.168343         0.988012
 C        -0.097595         0.083127         0.461870
 C        -1.161931         0.002376        -0.118219
 C        -2.485819        -0.343811        -0.554640
 C        -2.724774        -1.827921        -0.740298
 C        -2.879524         0.530318        -1.846032
 O        -2.884629         1.877383        -1.339979
 C        -3.070081         2.765945        -2.277739
 O        -3.616250         2.816980        -3.359654
 H         1.048786        -1.142535         1.448789
 H         1.790508        -0.464684         0.122675
 H         1.681453         0.610560         1.721781
 H        -3.226079        -0.032621         0.180601
 H        -3.696617        -1.973577        -1.286228
 H        -1.961797        -2.409892        -1.382350
 H        -2.793735        -2.378497         0.225282
 H        -2.041219         0.490864        -2.492097
 H        -3.922042         0.258891        -2.196860
 H        -2.833256         3.686519        -1.741353
