19
Iteration:  3676charge 0 multiplicity 1
 C         1.503823        -0.790918         0.773519
 C         0.114916        -0.344654         0.725511
 C        -0.996504        -0.136125         0.277818
 C        -2.247227         0.001642        -0.397168
 C        -2.838503        -1.242387        -1.057905
 C        -2.304222         1.320001        -1.447680
 O        -3.548122         1.980564        -1.378961
 C        -3.994838         2.540603        -2.545772
 O        -3.320763         2.361447        -3.552485
 H         1.924656        -0.902590         1.829723
 H         1.738721        -1.704548         0.407386
 H         2.251427        -0.166201         0.361336
 H        -2.876568         0.283914         0.443669
 H        -3.335418        -1.090326        -2.031015
 H        -2.050904        -1.954784        -1.282090
 H        -3.414374        -1.776276        -0.337825
 H        -1.471788         2.076855        -1.166417
 H        -1.965668         0.899431        -2.441424
 H        -4.991767         2.920631        -2.453019
