19
Iteration:  4301
 C         1.344988        -0.712812         1.096350
 C         0.042599        -0.384321         0.621705
 C        -0.983175        -0.163192         0.081379
 C        -2.267607         0.028517        -0.534638
 C        -2.644177        -1.239243        -1.316711
 C        -2.213678         1.337852        -1.313720
 O        -3.563418         2.082004        -1.285005
 C        -3.953124         2.463741        -2.512288
 O        -3.365866         2.224247        -3.524679
 H         2.019627         0.192554         1.245540
 H         1.189434        -1.104220         2.085421
 H         1.818687        -1.596996         0.510944
 H        -2.959702         0.268526         0.249172
 H        -3.743164        -1.386548        -1.613737
 H        -2.265670        -1.316332        -2.314492
 H        -2.246406        -2.159280        -0.860916
 H        -1.652028         1.996750        -0.734659
 H        -1.693367         1.279523        -2.309579
 H        -4.753516         3.189736        -2.402510
