19
Iteration:   605
 C         1.496533        -0.129470         0.420558
 C         0.059014         0.004010         0.180752
 C        -1.097852        -0.187742        -0.085132
 C        -2.524151        -0.078357        -0.258356
 C        -3.076071        -1.460391        -0.018299
 C        -3.000425         0.562164        -1.568031
 O        -2.483136         1.975386        -1.600108
 C        -3.065204         2.691027        -2.552668
 O        -3.945018         2.299449        -3.313087
 H         1.887503        -0.846830        -0.325229
 H         1.896816         0.888593         0.240007
 H         1.889354        -0.438247         1.461084
 H        -2.822215         0.552349         0.562832
 H        -2.840534        -1.848208         0.991075
 H        -4.198997        -1.503656        -0.005914
 H        -2.508788        -2.198755        -0.634107
 H        -2.439795         0.121888        -2.470481
 H        -4.102285         0.594492        -1.755144
 H        -2.638811         3.698313        -2.527105
