19
Iteration:  1830charge 0 multiplicity 1
 C         1.419050        -0.000594         0.751227
 C         0.004964         0.036581         0.381044
 C        -1.125029        -0.101127        -0.047369
 C        -2.527798        -0.310516        -0.321842
 C        -2.822534        -1.775693        -0.602457
 C        -3.092454         0.619127        -1.439177
 O        -2.858223         2.074083        -1.397905
 C        -3.112153         2.818308        -2.506367
 O        -3.527367         2.344272        -3.546327
 H         1.575506        -0.463933         1.792644
 H         1.957712        -0.336529        -0.196512
 H         1.775161         0.997166         0.866739
 H        -2.993628        -0.018959         0.638493
 H        -1.870128        -2.350389        -0.774690
 H        -3.449193        -2.286660         0.173326
 H        -3.348144        -1.901049        -1.565368
 H        -2.531340         0.349056        -2.296327
 H        -4.143771         0.343979        -1.599332
 H        -2.955999         3.781274        -2.156034
