19
Iteration:  1821
 C         1.319911        -0.004807         0.773011
 C         0.027325         0.002830         0.333597
 C        -1.106594        -0.050413        -0.034872
 C        -2.463500        -0.317998        -0.289130
 C        -2.794730        -1.781225        -0.602250
 C        -3.031004         0.615064        -1.469598
 O        -2.824242         2.052166        -1.371169
 C        -3.157821         2.816826        -2.526523
 O        -3.577033         2.372686        -3.568835
 H         1.653242        -0.748103         1.562102
 H         2.024907        -0.422879         0.019871
 H         1.696411         0.959636         1.089234
 H        -3.054474        -0.014313         0.637913
 H        -1.980327        -2.401008        -0.329168
 H        -3.585258        -2.247984         0.063679
 H        -3.163167        -1.856834        -1.612657
 H        -2.741388         0.276261        -2.456058
 H        -4.122194         0.601135        -1.454794
 H        -3.052957         3.934159        -2.336990
