19
Iteration:  2353
 C         1.075494         0.704660         0.273810
 C        -0.219859         0.268275        -0.059348
 C        -1.396032        -0.139055        -0.143581
 C        -2.809692        -0.406881        -0.388896
 C        -3.139292        -1.855813        -0.572141
 C        -3.215112         0.317884        -1.593175
 O        -3.327661         1.747026        -1.258407
 C        -2.697926         2.588808        -2.038094
 O        -2.062463         2.433053        -3.076418
 H         0.913589         1.799132         0.558571
 H         1.303735         0.233103         1.220688
 H         1.814411         0.451617        -0.622966
 H        -3.408488         0.043161         0.413314
 H        -2.344550        -2.408500         0.008993
 H        -4.148874        -2.104618        -0.225304
 H        -2.867689        -2.200095        -1.565460
 H        -2.526077         0.243778        -2.490265
 H        -4.194753         0.134942        -1.991909
 H        -2.665147         3.418288        -1.320053
