19
Iteration:   750charge 0 multiplicity 1
 C         1.504658        -0.366778         0.615798
 C         0.078550         0.081897         0.422602
 C        -1.038704         0.115122        -0.094624
 C        -2.478954         0.051050        -0.335119
 C        -3.038267        -1.374747        -0.098419
 C        -2.742625         0.312691        -1.886972
 O        -2.314589         1.792655        -1.968774
 C        -3.276223         2.665459        -2.384190
 O        -4.274574         2.467815        -2.993725
 H         1.782817        -0.238999         1.699504
 H         1.846813        -1.303629         0.103764
 H         2.082034         0.341992         0.050618
 H        -3.010180         0.773828         0.308352
 H        -2.829749        -1.788798         0.924395
 H        -4.184415        -1.239770        -0.162952
 H        -2.846148        -2.119059        -0.901688
 H        -2.018860        -0.265677        -2.528897
 H        -3.805136         0.328976        -2.297688
 H        -2.920107         3.764655        -2.308699
