19
Iteration:   873
 C         1.533615        -0.044441         0.684335
 C         0.122199        -0.106416         0.331161
 C        -1.058522        -0.010461         0.083895
 C        -2.511610         0.054391        -0.452107
 C        -3.366877        -1.306193        -0.354309
 C        -2.502857         0.330239        -1.970506
 O        -2.208863         1.715029        -2.296257
 C        -3.161151         2.615442        -2.357384
 O        -4.373622         2.435850        -2.450039
 H         2.164082         0.643295         0.054564
 H         1.497875         0.327373         1.719932
 H         1.845624        -0.981052         0.828019
 H        -3.115986         0.821680         0.051293
 H        -3.002756        -1.866851         0.542917
 H        -4.474994        -1.139690        -0.298731
 H        -3.269979        -1.935668        -1.320439
 H        -1.800311        -0.252923        -2.577449
 H        -3.530578         0.101189        -2.259190
 H        -2.874350         3.705338        -2.021195
