19
Iteration:  3755charge 0 multiplicity 1
 C         1.470105        -0.919042         0.959269
 C         0.289308        -0.535896         0.270478
 C        -0.863994        -0.227664         0.057609
 C        -2.172684         0.266483        -0.247776
 C        -2.998415        -0.827858        -1.036610
 C        -2.347372         1.664315        -0.998529
 O        -3.698011         1.764584        -1.420632
 C        -3.943010         1.958664        -2.759885
 O        -3.215750         2.481674        -3.595508
 H         1.864787        -0.083605         1.663425
 H         1.289464        -1.917034         1.397392
 H         2.372504        -1.070670         0.330344
 H        -2.706493         0.315688         0.726280
 H        -3.916538        -0.903234        -0.488385
 H        -3.174904        -0.754260        -2.141646
 H        -2.718387        -1.870209        -0.824355
 H        -2.231448         2.556847        -0.213701
 H        -1.602078         1.704866        -1.778262
 H        -4.997675         1.760148        -2.998219
