19
Iteration:  3215charge 0 multiplicity 1
 C         1.139506         0.464594         0.791565
 C        -0.250694         0.093160         0.440937
 C        -1.271013        -0.403433         0.054441
 C        -2.614509        -0.548551        -0.510236
 C        -3.188677        -1.843265        -1.069612
 C        -2.681916         0.434612        -1.698636
 O        -2.286632         1.952767        -1.429474
 C        -2.850923         2.836445        -2.201648
 O        -3.680319         2.572619        -3.043755
 H         1.140534         1.274464         1.637649
 H         1.774324        -0.350351         0.876955
 H         1.290221         1.077505        -0.200851
 H        -3.172279        -0.235261         0.379194
 H        -4.031195        -1.746706        -1.786045
 H        -2.468007        -2.437409        -1.719581
 H        -3.581654        -2.563919        -0.361165
 H        -1.992860         0.151562        -2.436781
 H        -3.765077         0.468145        -1.937160
 H        -2.314552         3.786092        -2.180973
