19
Iteration:  1024
 C         1.185388         0.184808         0.868984
 C        -0.203617         0.107066         0.456104
 C        -1.174357         0.008744        -0.225579
 C        -2.603719        -0.076943        -0.707355
 C        -2.952017        -1.602389        -0.334435
 C        -2.727183         0.202721        -2.155774
 O        -2.302228         1.525108        -2.723902
 C        -2.990212         2.669223        -2.405282
 O        -3.900257         2.706909        -1.599079
 H         1.507002        -0.720560         1.362720
 H         1.593600         0.106673        -0.184882
 H         1.616830         1.217925         1.432495
 H        -3.024836         0.701853        -0.033558
 H        -3.730804        -1.727150         0.397789
 H        -3.317359        -2.298035        -1.074535
 H        -2.028042        -1.983970         0.135894
 H        -2.239180        -0.422710        -2.933651
 H        -3.813850         0.221604        -2.411343
 H        -2.954128         3.507807        -3.108857
