19
Iteration:  2439charge 0 multiplicity 1
 C         1.284267         0.145335         0.459279
 C        -0.121859         0.162585         0.242657
 C        -1.365385         0.247053        -0.012144
 C        -2.774531        -0.254364        -0.367208
 C        -2.622794        -1.716972        -0.840296
 C        -3.446721         0.470779        -1.562993
 O        -3.565221         1.861266        -1.304888
 C        -2.885183         2.624411        -2.169132
 O        -2.281945         2.269890        -3.153334
 H         1.831893         0.582735        -0.453790
 H         1.797258         0.624107         1.263768
 H         1.645933        -0.892797         0.601251
 H        -3.413761        -0.171459         0.514473
 H        -2.418369        -2.413508         0.026504
 H        -3.664645        -2.004043        -1.189325
 H        -2.043215        -1.782690        -1.803902
 H        -2.681808         0.320071        -2.377242
 H        -4.421107         0.040567        -1.749645
 H        -3.104325         3.689884        -2.124037
