19
Iteration:  1931
 C         1.293024         0.419706         0.344390
 C        -0.179395         0.186134         0.184144
 C        -1.327706        -0.180233         0.121692
 C        -2.680966        -0.421887        -0.378329
 C        -3.007790        -1.911532        -0.441355
 C        -3.063707         0.442696        -1.636199
 O        -2.990778         1.885253        -1.230359
 C        -2.928387         2.739024        -2.262425
 O        -2.845338         2.512020        -3.463209
 H         1.380299         1.366213         0.961743
 H         1.844599        -0.420636         0.925880
 H         1.626497         0.539037        -0.751945
 H        -3.234521        -0.028122         0.521651
 H        -4.130905        -1.910005        -0.303507
 H        -2.630501        -2.482524        -1.328575
 H        -2.506714        -2.476958         0.404625
 H        -2.356985         0.197601        -2.464348
 H        -4.056347         0.178755        -1.979479
 H        -3.027191         3.630359        -1.708063
