19
Iteration:  3739charge 0 multiplicity 1
 C         1.570564        -0.913388         0.984703
 C         0.264790        -0.565038         0.237384
 C        -0.906581        -0.163633         0.125064
 C        -2.302864         0.230072        -0.234973
 C        -2.984814        -0.838153        -1.023597
 C        -2.240534         1.545813        -0.979339
 O        -3.653066         1.738954        -1.435031
 C        -3.973763         2.107830        -2.729697
 O        -3.283830         2.474612        -3.653474
 H         1.484639        -0.244912         1.769794
 H         1.421240        -1.906396         1.441429
 H         2.379442        -0.818487         0.218048
 H        -2.727986         0.443768         0.743952
 H        -4.124780        -0.755390        -1.091832
 H        -2.456122        -0.763522        -1.972014
 H        -2.644994        -1.832061        -0.677854
 H        -1.977133         2.398684        -0.391971
 H        -1.675805         1.573209        -1.952331
 H        -5.046955         1.870622        -2.874225
