19
Iteration:  4040charge 0 multiplicity 1
 C         1.455042        -0.518892         1.017811
 C         0.180278        -0.371294         0.298010
 C        -1.005240        -0.387168        -0.026177
 C        -2.379015         0.106919        -0.402643
 C        -3.214154        -0.857375        -1.374776
 C        -2.075480         1.510322        -1.012020
 O        -3.418701         2.099906        -1.298702
 C        -3.897953         2.180441        -2.501862
 O        -3.245334         1.802479        -3.461014
 H         1.671320        -1.660498         0.861803
 H         2.296370         0.033073         0.599496
 H         1.450628        -0.185864         2.019153
 H        -2.834977         0.348893         0.562171
 H        -3.842185        -1.520176        -0.722222
 H        -3.578885        -0.191148        -2.090537
 H        -2.431469        -1.401203        -1.963936
 H        -1.702721         2.155725        -0.222273
 H        -1.457726         1.656888        -1.981980
 H        -4.940695         2.577687        -2.525229
