19
Iteration:  3847charge 0 multiplicity 1
 C         1.425875        -0.899265         0.558492
 C         0.134383        -0.372071         0.352144
 C        -0.996827         0.007031         0.270043
 C        -2.347527         0.141419        -0.095227
 C        -2.737557        -1.023926        -1.105510
 C        -2.405529         1.550088        -0.843107
 O        -3.829241         1.924904        -1.410319
 C        -3.868019         2.239252        -2.775843
 O        -2.968061         2.132030        -3.611121
 H         2.182803        -0.298769         0.172190
 H         1.616503        -1.056472         1.690473
 H         1.791717        -1.928145         0.229057
 H        -3.070935         0.194458         0.791588
 H        -3.847351        -0.972162        -1.211670
 H        -2.208593        -0.816296        -2.027600
 H        -2.510218        -1.942677        -0.598914
 H        -2.265762         2.230434        -0.100205
 H        -1.663340         1.689116        -1.649927
 H        -4.963760         2.504060        -2.925454
