19
Iteration:  4777charge 0 multiplicity 1
 C         1.387547        -0.489186         1.031710
 C        -0.012312        -0.257091         0.609744
 C        -1.062220        -0.013288         0.094176
 C        -2.407902         0.181825        -0.562451
 C        -3.039838        -1.189256        -0.562025
 C        -2.082085         0.818209        -1.934959
 O        -3.336993         1.052794        -2.771205
 C        -3.747551         2.299381        -2.605007
 O        -3.329458         3.288649        -2.035138
 H         2.006175         0.369323         1.128427
 H         1.436849        -1.132449         1.951448
 H         1.854767        -1.124202         0.323141
 H        -2.943637         0.995156         0.035447
 H        -4.183111        -1.173506        -0.598295
 H        -2.590982        -1.660306        -1.438852
 H        -2.775687        -1.667179         0.391234
 H        -1.403353         1.590619        -1.842036
 H        -1.607701         0.023198        -2.497965
 H        -4.793573         2.345470        -3.043981
