19
Iteration:  2800charge 0 multiplicity 1
 C         1.124310         0.187024         1.084535
 C        -0.005780        -0.146106         0.235221
 C        -1.074595        -0.200143        -0.298862
 C        -2.503171        -0.351158        -0.526203
 C        -2.881018        -1.762881        -0.944668
 C        -3.214449         0.633025        -1.482421
 O        -2.641267         1.975713        -1.318413
 C        -2.928547         2.821287        -2.298934
 O        -3.450952         2.437000        -3.322022
 H         1.035229         1.327638         1.159646
 H         0.927976        -0.369422         2.121815
 H         2.090988        -0.014594         0.600452
 H        -2.945656        -0.173532         0.476197
 H        -3.937918        -1.728563        -0.922070
 H        -2.600322        -1.730457        -1.984690
 H        -2.493612        -2.552365        -0.267025
 H        -3.280833         0.374405        -2.554990
 H        -4.319220         0.566549        -1.229305
 H        -2.408763         3.755502        -2.020158
