19
Iteration:  4751
 C         1.463525        -0.511069         1.001413
 C         0.062556        -0.463653         0.656876
 C        -1.039956        -0.143473         0.185574
 C        -2.305647         0.163576        -0.487551
 C        -3.098555        -1.100936        -0.662734
 C        -2.014903         0.833477        -1.839753
 O        -3.274186         1.114102        -2.617721
 C        -3.916724         2.295912        -2.660743
 O        -3.473849         3.373954        -2.284636
 H         1.743510         0.511640         1.472555
 H         1.571315        -1.204081         1.842533
 H         2.239377        -0.753263         0.229985
 H        -2.869994         0.948700         0.070325
 H        -4.117261        -0.696875        -0.920002
 H        -2.657046        -1.778279        -1.417660
 H        -3.335174        -1.494239         0.337933
 H        -1.269142         1.735977        -1.610074
 H        -1.411740         0.121275        -2.474083
 H        -4.965354         2.145940        -3.051388
