19
Iteration:  2920charge 0 multiplicity 1
 C         1.415527        -0.217917         0.803100
 C        -0.121094        -0.277517         0.577627
 C        -1.258313        -0.141580         0.271625
 C        -2.514583        -0.224460        -0.559713
 C        -2.742551        -1.763980        -0.656645
 C        -2.549946         0.639259        -1.869498
 O        -2.899532         2.047086        -1.423304
 C        -3.515430         2.829792        -2.297938
 O        -3.476587         2.763849        -3.506905
 H         1.890822        -0.117640        -0.207422
 H         1.635209         0.693544         1.418981
 H         1.586897        -1.179843         1.297408
 H        -3.372325         0.215908         0.006695
 H        -3.396324        -2.202792        -1.399225
 H        -1.725108        -2.197106        -0.767910
 H        -3.197727        -2.122366         0.318336
 H        -1.634184         0.402990        -2.415402
 H        -3.321194         0.306425        -2.653234
 H        -4.237555         3.356006        -1.575392
