19
Iteration:  2136charge 0 multiplicity 1
 C         1.049611         0.830194        -0.059985
 C        -0.370419         0.405624        -0.222634
 C        -1.582479         0.259645        -0.220131
 C        -2.849983        -0.374586        -0.380445
 C        -2.773394        -1.888883        -0.815747
 C        -3.743328         0.439616        -1.402816
 O        -3.465021         1.882017        -1.231364
 C        -2.468237         2.425245        -1.903563
 O        -1.684830         1.814851        -2.608467
 H         1.693317        -0.025057        -0.447490
 H         1.332993         1.796599        -0.635624
 H         1.276542         1.282890         0.890905
 H        -3.324504        -0.301062         0.630639
 H        -2.627522        -1.855678        -1.932773
 H        -1.912078        -2.412099        -0.388515
 H        -3.643473        -2.415499        -0.420931
 H        -3.322102         0.098969        -2.408207
 H        -4.839754         0.291110        -1.340241
 H        -2.569663         3.445027        -2.053254
