19
Iteration:    45charge 0 multiplicity 1
 C         1.197259         0.379964        -0.616011
 C        -0.166918         0.189796        -0.271618
 C        -1.356688         0.238947        -0.099742
 C        -2.787025        -0.075344        -0.019345
 C        -3.111431        -1.592647         0.288940
 C        -3.643027         0.503581        -1.171359
 O        -3.391162         1.913599        -1.360481
 C        -2.461340         2.447588        -2.298905
 O        -2.051419         1.780266        -3.266933
 H         1.373904         1.479220        -0.719097
 H         1.976191         0.008355         0.046405
 H         1.442619         0.072899        -1.631486
 H        -3.115284         0.483714         0.876134
 H        -2.255903        -2.020390         0.799101
 H        -3.987099        -1.729301         0.931911
 H        -3.271837        -2.178168        -0.621899
 H        -3.486098        -0.017620        -2.097852
 H        -4.708601         0.454981        -0.910801
 H        -2.131882         3.458394        -2.015080
