19
Iteration:  1682
 C         1.511945        -0.046702         0.893556
 C         0.055526        -0.237524         0.400536
 C        -1.100484         0.008914         0.069099
 C        -2.520520        -0.101577        -0.424359
 C        -3.077891        -1.504869        -0.521904
 C        -2.558189         0.557388        -1.835831
 O        -2.431498         1.959848        -1.755876
 C        -3.332154         2.729577        -2.375645
 O        -4.180265         2.333172        -3.171980
 H         2.114193        -0.440390         0.077253
 H         1.719647         1.011982         1.050077
 H         1.753942        -0.797163         1.775190
 H        -3.059767         0.506136         0.263834
 H        -3.133138        -1.672354        -1.599204
 H        -2.456742        -2.322068        -0.039225
 H        -4.031933        -1.735940         0.069825
 H        -1.591857         0.229035        -2.353999
 H        -3.457201         0.225403        -2.419646
 H        -3.041417         3.679363        -2.086646
