19
Iteration:  1619charge 0 multiplicity 1
 C         1.449456        -0.039145         0.877225
 C         0.010563        -0.046978         0.393738
 C        -1.173414        -0.007583         0.098456
 C        -2.489838        -0.150887        -0.483286
 C        -3.220414        -1.467730        -0.587172
 C        -2.391428         0.498471        -1.915846
 O        -2.205805         1.931952        -1.906413
 C        -3.271105         2.656806        -2.388408
 O        -4.348253         2.281764        -2.798844
 H         2.044617         0.513254         0.108058
 H         1.635098         0.446073         1.830560
 H         1.956824        -1.029291         0.814523
 H        -3.153766         0.564929         0.084715
 H        -2.583620        -2.246847        -0.181410
 H        -4.157093        -1.411326        -0.020202
 H        -3.236480        -1.579436        -1.697379
 H        -1.457358         0.043709        -2.334170
 H        -3.266610         0.344976        -2.552881
 H        -3.114337         3.847006        -2.336475
