19
Iteration:   572
 C         1.469586        -0.097827         0.292700
 C         0.053263        -0.086953         0.002075
 C        -1.121611         0.165244         0.107819
 C        -2.530053        -0.084670        -0.115355
 C        -3.145714        -1.519064        -0.028708
 C        -2.923749         0.454488        -1.481136
 O        -2.575904         1.820071        -1.558699
 C        -3.077335         2.651381        -2.471200
 O        -3.754085         2.396663        -3.446475
 H         2.102145        -0.250100        -0.634679
 H         1.676594         0.978292         0.427590
 H         1.742412        -0.881818         1.088433
 H        -3.100310         0.463206         0.589198
 H        -2.662643        -2.043342         0.810830
 H        -4.233747        -1.296374         0.154702
 H        -3.128110        -2.009047        -1.031717
 H        -2.231982        -0.002953        -2.289566
 H        -3.918230         0.351904        -1.975944
 H        -2.878286         3.662938        -2.374529
