19
Iteration:  2217charge 0 multiplicity 1
 C         0.852605         0.984705        -0.225193
 C        -0.432774         0.413421         0.038348
 C        -1.555823        -0.061209        -0.087566
 C        -2.913710        -0.445098        -0.333720
 C        -3.013254        -1.922906        -0.746506
 C        -3.405333         0.401017        -1.529312
 O        -3.289600         1.759868        -1.135157
 C        -2.437893         2.492814        -1.915499
 O        -1.714021         2.100752        -2.834002
 H         1.666355         0.824637         0.534405
 H         1.346164         0.629952        -1.153494
 H         0.829743         2.047357        -0.083698
 H        -3.589385        -0.229766         0.485093
 H        -4.066665        -2.232893        -0.639815
 H        -2.742452        -2.111415        -1.817696
 H        -2.480985        -2.617839        -0.030292
 H        -2.680088         0.276105        -2.313527
 H        -4.387464         0.111844        -1.961401
 H        -2.151283         3.397611        -1.525354
