19
Iteration:  4888charge 0 multiplicity 1
 C         1.203414        -0.021501         1.204106
 C        -0.061099        -0.130316         0.539638
 C        -1.042807        -0.129833        -0.232287
 C        -2.281273         0.039572        -0.899310
 C        -3.248418        -1.099213        -0.531070
 C        -2.117249         0.499105        -2.407022
 O        -3.428818         1.101577        -2.802545
 C        -3.695916         2.410814        -2.288411
 O        -2.918862         2.938715        -1.461808
 H         1.905662         0.244244         0.461905
 H         1.198406         0.907676         1.833476
 H         1.617776        -0.930378         1.650769
 H        -2.756404         0.978944        -0.433443
 H        -4.226497        -1.080078        -0.975356
 H        -2.952600        -2.222662        -0.527778
 H        -3.454161        -0.857411         0.543847
 H        -1.381220         1.158661        -2.711994
 H        -2.034521        -0.323419        -3.106302
 H        -4.652228         2.872722        -2.760764
