19
Iteration:  3997
 C         1.457217        -0.383918         0.898644
 C         0.133121        -0.427988         0.303314
 C        -0.978615        -0.304028        -0.244206
 C        -2.467404        -0.027728        -0.404888
 C        -3.229911        -0.993023        -1.262718
 C        -2.290044         1.420102        -0.926154
 O        -3.448913         2.226937        -1.256107
 C        -3.700249         2.382580        -2.574610
 O        -3.155879         1.688330        -3.381719
 H         2.262498        -1.121302         0.603738
 H         2.046113         0.558038         0.790548
 H         1.393080        -0.677659         1.906703
 H        -2.946750        -0.010851         0.532236
 H        -4.318897        -1.156796        -0.862736
 H        -2.932546        -0.837478        -2.276061
 H        -2.652523        -1.971566        -1.163411
 H        -1.915358         2.018956        -0.064059
 H        -1.359146         1.447887        -1.720391
 H        -4.226540         3.323414        -2.654924
