19
Iteration:  3909
 C         1.488256        -0.581510         0.424816
 C         0.002133        -0.380858         0.582892
 C        -1.212059        -0.260375         0.424533
 C        -2.496105         0.145952        -0.255411
 C        -2.918754        -0.827573        -1.365982
 C        -2.203803         1.515225        -0.968256
 O        -3.496168         1.947442        -1.285235
 C        -3.811624         2.112857        -2.560255
 O        -3.027640         1.956482        -3.498655
 H         1.626672        -0.240035        -0.654134
 H         1.990862         0.209719         0.989783
 H         1.742662        -1.593120         0.512580
 H        -3.254068         0.411536         0.437244
 H        -3.179378        -0.529043        -2.425994
 H        -2.078629        -1.561684        -1.577224
 H        -3.671102        -1.568819        -0.941218
 H        -1.772286         2.206811        -0.129983
 H        -1.564273         1.521993        -1.924752
 H        -4.869564         2.207512        -2.750234
