19
Iteration:  4181charge 0 multiplicity 1
 C         1.295624        -1.242940         1.205702
 C         0.219137        -0.416500         0.545546
 C        -0.751058         0.131800         0.055349
 C        -2.145222         0.332602        -0.459042
 C        -2.516085        -1.000638        -1.231041
 C        -2.271353         1.674437        -1.261486
 O        -3.715141         1.983287        -1.366002
 C        -4.140791         2.179172        -2.596783
 O        -3.442486         2.150941        -3.577677
 H         1.122443        -1.220357         2.341157
 H         1.312826        -2.264533         0.899377
 H         2.225633        -0.830119         0.852768
 H        -2.893944         0.495877         0.373489
 H        -2.284868        -0.896402        -2.362540
 H        -2.032274        -1.923333        -0.974650
 H        -3.557971        -1.390355        -1.115193
 H        -1.815439         2.446228        -0.736936
 H        -1.800905         1.578032        -2.268756
 H        -5.279586         2.198029        -2.649182
