19
Iteration:   231
 C         1.171573         0.502790        -0.947658
 C        -0.266446         0.397591        -0.388823
 C        -1.454410         0.134807        -0.117726
 C        -2.913397        -0.048221         0.028901
 C        -3.313819        -1.558262         0.277761
 C        -3.537430         0.409840        -1.282060
 O        -3.213528         1.787789        -1.240248
 C        -2.489279         2.361412        -2.178927
 O        -1.813237         1.825704        -2.997648
 H         1.550827        -0.623245        -1.098987
 H         1.186884         1.249087        -1.646057
 H         1.833883         0.705856        -0.174478
 H        -3.293320         0.673580         0.902406
 H        -2.496555        -2.068900         0.751500
 H        -4.240795        -1.685800         0.793571
 H        -3.380815        -1.968407        -0.723322
 H        -3.142920        -0.090539        -2.124246
 H        -4.625316         0.329137        -1.169197
 H        -2.507617         3.479318        -2.026200
