19
Iteration:  2220
 C         0.868463         0.991835        -0.216481
 C        -0.436768         0.403946         0.020462
 C        -1.565625        -0.100442        -0.083185
 C        -2.913505        -0.448916        -0.341815
 C        -3.015018        -1.928114        -0.724697
 C        -3.386541         0.391650        -1.534479
 O        -3.283611         1.770741        -1.138417
 C        -2.446820         2.503890        -1.934084
 O        -1.719476         2.110677        -2.835623
 H         1.532054         0.849238         0.590382
 H         1.262459         0.646141        -1.111828
 H         0.827965         2.107895        -0.128707
 H        -3.564115        -0.219643         0.514608
 H        -4.047277        -2.222650        -0.534894
 H        -2.783050        -2.077489        -1.765825
 H        -2.452061        -2.631274        -0.131198
 H        -2.666868         0.261082        -2.311898
 H        -4.383257         0.197765        -1.953137
 H        -2.113947         3.437032        -1.419102
