19
Iteration:  4385
 C         1.339442        -0.218480         0.990016
 C        -0.017911        -0.508577         0.620103
 C        -1.148715        -0.423842         0.179562
 C        -2.330099        -0.207455        -0.557436
 C        -2.885999        -1.402138        -1.309340
 C        -2.086662         1.181115        -1.256209
 O        -3.364989         1.944915        -1.304828
 C        -3.810448         2.553695        -2.462751
 O        -3.315345         2.560143        -3.580552
 H         1.838068         0.032087         0.064474
 H         1.410466         0.677518         1.672666
 H         1.920001        -1.098934         1.422894
 H        -3.125149         0.023603         0.229725
 H        -3.940358        -1.389927        -1.001570
 H        -2.564361        -1.241104        -2.320093
 H        -2.495369        -2.312832        -0.805393
 H        -1.460818         1.829289        -0.571343
 H        -1.793362         0.948184        -2.334486
 H        -4.854612         2.984859        -2.275674
