19
Iteration:  1238
 C         0.827412         0.878253         0.415334
 C        -0.482864         0.371656         0.210086
 C        -1.456385        -0.225744        -0.228404
 C        -2.756131        -0.419248        -0.663771
 C        -3.164820        -1.849397        -0.618729
 C        -2.879907         0.218892        -2.195986
 O        -1.948437         1.402290        -2.377074
 C        -2.431310         2.556496        -1.957710
 O        -3.530456         2.718497        -1.431146
 H         1.038103         1.101182        -0.722582
 H         0.827619         1.725356         1.185886
 H         1.567227         0.163353         0.750378
 H        -3.386026         0.231779        -0.048127
 H        -2.326977        -2.409564        -1.051484
 H        -2.946911        -2.323471         0.375116
 H        -4.130051        -2.073830        -1.113656
 H        -2.530512        -0.467149        -2.957396
 H        -3.879319         0.595900        -2.342034
 H        -1.643997         3.376496        -2.279867
