19
Iteration:  2831charge 0 multiplicity 1
 C         1.197747        -0.009250         1.057924
 C        -0.067737        -0.042790         0.329838
 C        -1.124275        -0.090885        -0.211321
 C        -2.585013        -0.353317        -0.488057
 C        -2.836019        -1.832853        -0.890062
 C        -3.033698         0.596366        -1.607376
 O        -2.652194         2.020886        -1.346367
 C        -3.089895         2.858376        -2.279744
 O        -3.485710         2.475118        -3.364520
 H         1.608791         1.027954         0.975451
 H         1.249306        -0.059837         2.140985
 H         1.857766        -0.815781         0.615107
 H        -3.068014        -0.028229         0.448491
 H        -3.889261        -1.927737        -0.674946
 H        -2.635242        -1.783948        -1.965538
 H        -2.132446        -2.518632        -0.358451
 H        -2.524946         0.318058        -2.584019
 H        -4.118462         0.647917        -1.788204
 H        -2.891426         3.933454        -2.009127
