19
Iteration:  2719
 C         1.136800         0.447419         0.656953
 C        -0.183361         0.045911         0.323601
 C        -1.377240        -0.136832        -0.014094
 C        -2.750550        -0.439689        -0.449981
 C        -2.919388        -1.912606        -0.948690
 C        -3.212493         0.482818        -1.585569
 O        -2.482359         1.774245        -1.245730
 C        -2.721181         2.729408        -2.169705
 O        -3.223338         2.637000        -3.276510
 H         1.267178         1.118024         1.573741
 H         1.713470        -0.425460         0.497760
 H         1.357431         1.113410        -0.310500
 H        -3.462128        -0.324108         0.396162
 H        -3.972542        -2.204592        -1.274358
 H        -2.284152        -2.179618        -1.797934
 H        -2.630975        -2.713520        -0.280998
 H        -2.846246         0.302987        -2.614131
 H        -4.271109         0.646831        -1.500928
 H        -2.454162         3.722917        -1.707570
