19
Iteration:  1334
 C         1.011149         0.682398         0.764000
 C        -0.310928         0.303349         0.261733
 C        -1.392810        -0.010787        -0.142062
 C        -2.679456        -0.352555        -0.827189
 C        -3.141080        -1.792406        -0.591661
 C        -2.813013         0.194104        -2.283595
 O        -2.150171         1.480430        -2.630271
 C        -2.612421         2.555203        -2.061415
 O        -3.611272         2.642150        -1.353928
 H         1.511290        -0.266941         0.548186
 H         1.455961         1.492881         0.201027
 H         1.014041         1.016436         1.883341
 H        -3.462421         0.321036        -0.342828
 H        -4.246984        -1.888363        -0.391075
 H        -3.031287        -2.577309        -1.453791
 H        -2.607978        -2.172030         0.325509
 H        -2.412229        -0.435644        -3.084014
 H        -3.882068         0.364420        -2.425587
 H        -2.095476         3.460393        -2.565718
