19
Iteration:  3056
 C         1.336992        -0.170265         1.095972
 C         0.126149        -0.311885         0.352439
 C        -1.031087        -0.195228        -0.044839
 C        -2.514944        -0.212214        -0.534558
 C        -2.763109        -1.706257        -0.821059
 C        -2.924785         0.656651        -1.739684
 O        -2.996008         2.017456        -1.317010
 C        -3.328488         2.916729        -2.323486
 O        -3.503652         2.604328        -3.480253
 H         1.661504        -1.081647         1.597730
 H         2.296572         0.327682         0.696042
 H         1.260923         0.484606         1.949463
 H        -3.068561         0.037898         0.408182
 H        -3.809783        -1.827843        -1.085046
 H        -2.157275        -1.898718        -1.664415
 H        -2.532389        -2.352821         0.010791
 H        -2.170498         0.513431        -2.586323
 H        -3.893545         0.464414        -2.178565
 H        -3.627124         3.894636        -1.853849
