19
Iteration:   877charge 0 multiplicity 1
 C         1.481757        -0.011034         0.707748
 C         0.115845        -0.156507         0.311882
 C        -1.056139         0.026449         0.033983
 C        -2.509521         0.077195        -0.471919
 C        -3.356350        -1.310438        -0.353738
 C        -2.477010         0.316974        -1.918859
 O        -2.210228         1.705619        -2.319861
 C        -3.173497         2.602880        -2.311992
 O        -4.375447         2.453988        -2.446963
 H         2.185601         0.572920         0.002223
 H         1.566686         0.469541         1.695931
 H         1.891405        -1.118987         0.862853
 H        -3.188842         0.802280        -0.039038
 H        -3.019503        -1.954714         0.461203
 H        -4.424657        -1.141059        -0.188512
 H        -3.271352        -1.976692        -1.200442
 H        -1.749472        -0.196131        -2.530086
 H        -3.450741         0.096593        -2.340075
 H        -2.695821         3.575967        -2.060007
