19
Iteration:  1532charge 0 multiplicity 1
 C         1.329772        -0.015363         1.015755
 C        -0.109013         0.153576         0.494144
 C        -1.150699         0.029646        -0.095331
 C        -2.458676        -0.028396        -0.729329
 C        -3.055008        -1.493119        -0.517951
 C        -2.514698         0.343135        -2.214485
 O        -2.136803         1.729474        -2.298684
 C        -3.178330         2.595641        -2.348317
 O        -4.368507         2.454596        -2.139823
 H         1.640439         0.870949         1.625483
 H         1.221980        -0.867336         1.693025
 H         2.105997        -0.274472         0.285155
 H        -2.950509         0.810396        -0.136322
 H        -4.152477        -1.563562        -0.679220
 H        -2.706294        -2.372233        -1.088255
 H        -2.838374        -1.871097         0.526268
 H        -1.757146        -0.109894        -2.879637
 H        -3.513992         0.121212        -2.581678
 H        -2.554686         3.525592        -2.633810
