19
Iteration:  1975charge 0 multiplicity 1
 C         1.169582         0.623154         0.210264
 C        -0.147674         0.172821         0.158268
 C        -1.299280        -0.071183         0.016518
 C        -2.710354        -0.393192        -0.373574
 C        -3.099782        -1.834919        -0.436580
 C        -3.161445         0.297806        -1.571996
 O        -3.189529         1.686940        -1.264582
 C        -2.713591         2.633100        -2.151597
 O        -2.582784         2.577328        -3.347299
 H         1.173314         1.758581         0.105559
 H         1.692094         0.335163         1.211874
 H         1.925359         0.056593        -0.473531
 H        -3.359640        -0.024161         0.455802
 H        -3.547951        -2.163531         0.552360
 H        -3.687600        -2.127114        -1.327901
 H        -2.262299        -2.545896        -0.707335
 H        -2.539639         0.135006        -2.500163
 H        -4.142781         0.011442        -1.890700
 H        -2.549655         3.437628        -1.484009
