19
Iteration:  1191
 C         0.960481         0.975379         0.482990
 C        -0.250949         0.278620         0.090112
 C        -1.432077        -0.010739        -0.028679
 C        -2.762984        -0.340576        -0.659564
 C        -3.365115        -1.913367        -0.733999
 C        -2.745296         0.106393        -2.134135
 O        -2.100440         1.335081        -2.505965
 C        -2.496123         2.521148        -1.942756
 O        -3.518894         2.753126        -1.386992
 H         1.060994         1.935091         0.026618
 H         0.949808         0.847565         1.503433
 H         1.838841         0.298936         0.160490
 H        -3.631251         0.133917        -0.164554
 H        -2.798999        -2.817593        -0.470719
 H        -4.293005        -2.101675        -0.196958
 H        -3.544336        -1.888307        -1.784561
 H        -2.231208        -0.670074        -2.677881
 H        -3.751916         0.243736        -2.480595
 H        -1.782664         3.431435        -2.122277
