19
Iteration:  3183
 C         1.142959         0.317322         0.707240
 C        -0.238304        -0.091407         0.473454
 C        -1.411911        -0.293701         0.182667
 C        -2.694764        -0.406087        -0.532508
 C        -2.888509        -1.833279        -0.975131
 C        -2.724989         0.462876        -1.745500
 O        -2.385856         1.886657        -1.369750
 C        -2.849419         2.764419        -2.268515
 O        -3.713671         2.729461        -3.138079
 H         1.406125         0.689729         1.739708
 H         1.973476        -0.337868         0.533709
 H         1.165229         1.269699         0.079999
 H        -3.479215         0.002039         0.137542
 H        -3.843331        -2.140425        -1.483972
 H        -1.999583        -2.122665        -1.646913
 H        -2.707778        -2.477250        -0.100102
 H        -2.064414         0.292100        -2.552656
 H        -3.772101         0.468032        -2.192922
 H        -2.329537         3.692024        -2.109760
