19
Iteration:   129charge 0 multiplicity 1
 C         1.115806         0.621922        -0.960814
 C        -0.164710         0.169967        -0.380893
 C        -1.371079         0.083218        -0.197462
 C        -2.832096        -0.055173        -0.005870
 C        -3.274053        -1.533165         0.279924
 C        -3.642033         0.473000        -1.195157
 O        -3.465750         1.918928        -1.315932
 C        -2.417936         2.387817        -2.226264
 O        -1.681700         1.662029        -2.838556
 H         0.890872         1.055010        -2.033715
 H         1.532146         1.447644        -0.367808
 H         1.807570        -0.234811        -0.955556
 H        -3.174175         0.626211         0.830827
 H        -3.305029        -1.759447         1.349643
 H        -4.299185        -1.610433        -0.085967
 H        -2.609440        -2.220519        -0.232318
 H        -3.443312        -0.075986        -2.152621
 H        -4.678028         0.394325        -0.930404
 H        -2.508515         3.518598        -2.331556
