19
Iteration:  4061charge 0 multiplicity 1
 C         1.461168        -0.616572         0.973515
 C         0.125152        -0.508913         0.475766
 C        -1.002770        -0.274234         0.060717
 C        -2.331703         0.175744        -0.426063
 C        -3.043055        -0.767416        -1.362417
 C        -2.097691         1.529727        -1.024718
 O        -3.412274         2.078443        -1.248580
 C        -3.888888         2.039853        -2.507994
 O        -3.365723         1.920592        -3.613360
 H         1.654405        -1.775388         1.106547
 H         2.180094        -0.156129         0.315355
 H         1.553476         0.077528         1.791810
 H        -3.006260         0.279727         0.480029
 H        -3.243107        -1.707700        -0.785564
 H        -3.950579        -0.321999        -1.758820
 H        -2.432193        -1.093587        -2.271027
 H        -1.513247         2.215254        -0.432546
 H        -1.707000         1.447160        -2.080607
 H        -4.988471         2.324399        -2.475664
