19
Iteration:  4230charge 0 multiplicity 1
 C         1.448993        -1.057309         1.308090
 C         0.194299        -0.561133         0.650998
 C        -0.774969        -0.161348         0.047417
 C        -2.123817         0.327030        -0.459318
 C        -2.834209        -0.659452        -1.360364
 C        -2.176001         1.680948        -1.171441
 O        -3.540440         1.743391        -1.423671
 C        -4.123755         2.036178        -2.620756
 O        -3.579631         2.316378        -3.670533
 H         1.712170        -0.479660         2.216457
 H         1.245846        -2.179579         1.635836
 H         2.307004        -1.050801         0.556615
 H        -2.718628         0.604067         0.450114
 H        -3.171257        -0.397732        -2.312524
 H        -2.032347        -1.449113        -1.626670
 H        -3.477911        -1.388806        -0.849836
 H        -1.733135         2.502359        -0.417105
 H        -1.557880         1.778860        -2.058630
 H        -5.224248         2.067155        -2.470500
