19
Iteration:  3076charge 0 multiplicity 1
 C         1.316817        -0.212377         1.077903
 C         0.035687        -0.121607         0.372447
 C        -1.121342        -0.007898        -0.085610
 C        -2.454138        -0.268842        -0.523766
 C        -2.778904        -1.778417        -0.824083
 C        -2.868361         0.493456        -1.791207
 O        -2.993380         1.923079        -1.342554
 C        -3.196286         2.921229        -2.279335
 O        -3.575267         2.692426        -3.406147
 H         1.472110        -1.088160         1.679145
 H         2.219118         0.083811         0.358566
 H         1.426716         0.584902         1.771109
 H        -3.161434         0.195447         0.194240
 H        -3.784771        -1.866493        -1.227080
 H        -2.010341        -2.166616        -1.485439
 H        -2.758412        -2.206370         0.149216
 H        -2.086472         0.548639        -2.574996
 H        -3.894590         0.129868        -2.052621
 H        -2.757256         3.874142        -1.830978
