19
Iteration:  1297charge 0 multiplicity 1
 C         0.958902         0.812394         0.616095
 C        -0.340800         0.323707         0.140791
 C        -1.471259        -0.011683        -0.210722
 C        -2.778570        -0.274376        -0.724233
 C        -3.124130        -1.788602        -0.760360
 C        -2.801401         0.085914        -2.173686
 O        -2.152451         1.326783        -2.419539
 C        -2.506997         2.445781        -1.924964
 O        -3.564135         2.799612        -1.427824
 H         1.731389         0.274681         0.055797
 H         1.193116         1.904466         0.424300
 H         1.120269         0.422069         1.686216
 H        -3.531655         0.252058        -0.135953
 H        -3.761817        -2.026733        -1.634776
 H        -2.187024        -2.305211        -0.681009
 H        -3.610429        -2.108970         0.163191
 H        -2.207626        -0.684044        -2.725358
 H        -3.857449         0.144251        -2.587218
 H        -1.860159         3.216967        -2.172684
