19
Iteration:  4277
 C         1.468074        -0.850124         1.261493
 C         0.152952        -0.519875         0.558092
 C        -0.931644        -0.183821         0.070442
 C        -2.273968         0.128418        -0.449456
 C        -2.686325        -1.056141        -1.350745
 C        -2.230407         1.467613        -1.221086
 O        -3.556147         2.057066        -1.355770
 C        -4.023263         2.274649        -2.564400
 O        -3.478735         2.310655        -3.644146
 H         1.914504         0.100065         1.606041
 H         1.309369        -1.441593         2.180978
 H         2.282869        -1.430615         0.579346
 H        -2.954223         0.260566         0.380509
 H        -3.621726        -0.812475        -1.988857
 H        -2.093895        -1.505193        -2.113478
 H        -2.890296        -1.971785        -0.720623
 H        -1.630916         2.235664        -0.620173
 H        -1.628278         1.298052        -2.152552
 H        -5.079875         2.487293        -2.448250
