19
Iteration:  3689charge 0 multiplicity 1
 C         1.597066        -0.825011         0.808836
 C         0.155423        -0.421011         0.738810
 C        -0.944520        -0.181840         0.256274
 C        -2.278419         0.195267        -0.427927
 C        -2.875255        -1.241866        -1.074739
 C        -2.209047         1.396748        -1.349812
 O        -3.653334         1.911191        -1.400713
 C        -3.995649         2.403125        -2.573002
 O        -3.305937         2.381930        -3.566708
 H         1.919155        -0.751650         1.906596
 H         1.521366        -1.850578         0.469744
 H         2.070087        -0.196270         0.084762
 H        -3.083108         0.481937         0.294021
 H        -3.537704        -0.914681        -1.846385
 H        -2.072908        -1.932278        -1.390218
 H        -3.561471        -1.716765        -0.385786
 H        -1.586097         2.293598        -0.982338
 H        -2.031825         1.194639        -2.381147
 H        -4.922514         3.025286        -2.465089
