19
Iteration:  3339
 C         1.248746         0.307219         1.059092
 C        -0.138513         0.014777         0.487967
 C        -1.234749        -0.117351        -0.039301
 C        -2.610213        -0.459918        -0.566115
 C        -2.918075        -1.919474        -0.867572
 C        -2.913380         0.331327        -1.896961
 O        -2.365723         1.678189        -1.682774
 C        -2.952817         2.819128        -2.186701
 O        -3.770104         2.990341        -3.061629
 H         1.713784         1.230440         0.720783
 H         1.133856         0.183093         2.132895
 H         1.784397        -0.589258         0.876438
 H        -3.253895         0.039601         0.144929
 H        -3.994466        -1.980477        -1.220084
 H        -2.313855        -2.425290        -1.628518
 H        -3.095051        -2.638689        -0.012490
 H        -2.374443        -0.077348        -2.815761
 H        -3.953782         0.469494        -2.113987
 H        -2.460457         3.629789        -1.696290
