19
Iteration:   140
 C         1.034243         0.617512        -0.963052
 C        -0.169341         0.098241        -0.301556
 C        -1.425498         0.121746        -0.273935
 C        -2.801375        -0.041690         0.021265
 C        -3.240183        -1.395070         0.220622
 C        -3.680814         0.434078        -1.137671
 O        -3.401072         1.845433        -1.356250
 C        -2.412408         2.345948        -2.154487
 O        -1.655127         1.711509        -2.858383
 H         0.757104         0.739133        -2.144483
 H         1.279984         1.585460        -0.494469
 H         2.028922         0.072094        -1.090838
 H        -3.034698         0.553372         0.972243
 H        -3.257323        -1.680327         1.270885
 H        -4.257489        -1.544212        -0.154423
 H        -2.702851        -2.166131        -0.307517
 H        -3.379154        -0.165548        -2.047152
 H        -4.702430         0.259678        -0.904293
 H        -2.665525         3.472902        -2.219202
