19
Iteration:   546charge 0 multiplicity 1
 C         1.544301        -0.045808         0.090062
 C         0.024599         0.010477         0.155482
 C        -1.183841        -0.058458         0.119119
 C        -2.664579        -0.045171        -0.066207
 C        -3.106687        -1.521635         0.042852
 C        -2.947239         0.463751        -1.536851
 O        -2.649762         1.839295        -1.514109
 C        -3.096245         2.666074        -2.446707
 O        -3.600368         2.394971        -3.527933
 H         1.982445         0.101633        -0.820648
 H         1.938823         0.727289         0.749168
 H         1.813109        -1.065250         0.544655
 H        -3.202915         0.608895         0.685774
 H        -2.522713        -1.955857         0.863982
 H        -4.187135        -1.614358         0.165846
 H        -2.932148        -1.997996        -0.939821
 H        -2.230634         0.007693        -2.221713
 H        -3.924779         0.311177        -2.001683
 H        -2.797812         3.730508        -2.290362
