19
Iteration:  2790charge 0 multiplicity 1
 C         1.084397         0.261694         1.114065
 C         0.042634        -0.129915         0.172193
 C        -1.042682        -0.237303        -0.289192
 C        -2.497646        -0.368339        -0.487095
 C        -2.966969        -1.764432        -0.988822
 C        -3.254766         0.615012        -1.448716
 O        -2.706393         1.965904        -1.285382
 C        -2.802225         2.819695        -2.355691
 O        -3.464945         2.483789        -3.315706
 H         1.197471         1.377126         1.355412
 H         1.328343        -0.428766         2.075323
 H         1.982337         0.081247         0.544806
 H        -2.975497        -0.299383         0.510112
 H        -3.971677        -2.019655        -1.127261
 H        -2.493246        -2.200386        -1.879972
 H        -2.597171        -2.623382        -0.365176
 H        -3.027831         0.327986        -2.464031
 H        -4.319029         0.653349        -1.038455
 H        -2.347998         3.816950        -2.236676
