19
Iteration:   830
 C         1.466999        -0.146707         0.567726
 C        -0.017038        -0.044442         0.471515
 C        -1.043726        -0.105033        -0.139249
 C        -2.448148        -0.043254        -0.397062
 C        -3.290728        -1.301974        -0.249733
 C        -2.549997         0.477599        -1.854655
 O        -2.155774         1.881018        -2.035301
 C        -3.209391         2.644581        -2.630213
 O        -4.377028         2.318146        -2.527810
 H         1.951328         0.996371         0.603038
 H         1.765519        -0.460882         1.603314
 H         2.035251        -0.730934        -0.062495
 H        -2.808409         0.716302         0.248742
 H        -3.512144        -1.550402         0.825167
 H        -4.288267        -1.405797        -0.770239
 H        -2.693978        -2.252737        -0.528317
 H        -1.871289        -0.105911        -2.477172
 H        -3.514474         0.412852        -2.326628
 H        -2.663954         3.654517        -2.958863
