19
Iteration:  4840
 C         1.190129        -0.328466         1.129865
 C         0.041032         0.029186         0.429624
 C        -1.087520         0.085205        -0.088572
 C        -2.371498         0.221991        -0.677479
 C        -3.063095        -1.156817        -0.534724
 C        -2.210053         0.476352        -2.177147
 O        -3.362577         1.144662        -2.830771
 C        -3.652703         2.337687        -2.425065
 O        -3.064121         2.984699        -1.616825
 H         2.189451         0.180697         0.875824
 H         1.001821        -0.083917         2.212120
 H         1.292175        -1.376640         0.879622
 H        -2.976771         1.044829        -0.261888
 H        -3.818031        -1.336468        -1.393591
 H        -2.363463        -1.907090        -0.781011
 H        -3.498614        -1.572007         0.384512
 H        -1.365641         1.096549        -2.634467
 H        -2.337339        -0.455741        -2.769659
 H        -4.673281         2.594258        -2.856008
