19
Iteration:  2984
 C         1.387234        -0.248631         0.959778
 C         0.092483        -0.143302         0.454971
 C        -1.097403        -0.199111         0.133031
 C        -2.367922        -0.184948        -0.493605
 C        -2.964216        -1.530391        -0.955832
 C        -2.608049         0.713953        -1.754544
 O        -3.182503         1.980808        -1.270979
 C        -3.361071         2.822852        -2.318131
 O        -3.482966         2.441344        -3.463189
 H         2.115022        -1.034978         0.628663
 H         1.930049         0.607942         1.075521
 H         1.391067        -0.464496         2.067227
 H        -2.978105         0.054336         0.403499
 H        -4.093920        -1.465241        -1.049384
 H        -2.613703        -1.714979        -2.020645
 H        -2.731300        -2.457437        -0.303172
 H        -1.714975         1.050147        -2.323966
 H        -3.259772         0.267312        -2.555863
 H        -3.601407         3.874402        -2.116566
