19
Iteration:  2384
 C         1.213091         0.457178         0.306168
 C        -0.204187         0.251126         0.158074
 C        -1.422194         0.073241        -0.019858
 C        -2.845136        -0.445092        -0.345366
 C        -2.926045        -1.982456        -0.687845
 C        -3.368827         0.374900        -1.543881
 O        -3.374858         1.877738        -1.320013
 C        -2.835340         2.685650        -2.189503
 O        -2.070721         2.419602        -3.093889
 H         1.520371         1.500082        -0.104850
 H         1.444967         0.345063         1.348107
 H         1.988382        -0.024699        -0.436622
 H        -3.462140        -0.148418         0.502114
 H        -1.923687        -2.440003        -0.302299
 H        -3.805053        -2.559042        -0.260621
 H        -2.912223        -2.158182        -1.804924
 H        -2.802592         0.099264        -2.483910
 H        -4.434181         0.139886        -1.720959
 H        -3.021632         3.750189        -1.869060
