19
Iteration:  2520
 C         1.281638         0.188356         0.735929
 C        -0.101999         0.142848         0.155850
 C        -1.159941         0.081968        -0.396046
 C        -2.610530        -0.344220        -0.546798
 C        -2.827251        -1.869020        -0.662706
 C        -3.403829         0.391985        -1.545792
 O        -3.351296         1.831833        -1.246144
 C        -2.971587         2.816227        -2.173548
 O        -2.514237         2.486815        -3.242714
 H         2.061533        -0.343788         0.104644
 H         1.300572         1.300207         0.483839
 H         1.251918         0.083361         1.896149
 H        -3.039321        -0.057283         0.425841
 H        -3.570674        -2.267010         0.028779
 H        -3.187390        -2.267149        -1.604238
 H        -1.966675        -2.385042        -0.223457
 H        -3.205339         0.218842        -2.576089
 H        -4.491108         0.145071        -1.477584
 H        -2.986958         3.815021        -1.679627
