19
Iteration:  1924
 C         1.219351         0.392556         0.387842
 C        -0.181876         0.164578         0.159958
 C        -1.336467        -0.205214         0.106648
 C        -2.606987        -0.399945        -0.375949
 C        -2.972977        -1.917893        -0.413369
 C        -3.003567         0.451677        -1.600035
 O        -2.969959         1.925082        -1.245145
 C        -2.977764         2.754783        -2.278999
 O        -2.881212         2.480638        -3.463090
 H         1.467062         1.241398         0.956132
 H         1.721250        -0.492919         0.636385
 H         1.806007         0.550438        -0.565577
 H        -3.329721        -0.048514         0.411017
 H        -4.035597        -1.961079        -0.647832
 H        -2.438161        -2.411079        -1.206203
 H        -2.815011        -2.544498         0.460354
 H        -2.455623         0.320753        -2.567868
 H        -4.088203         0.339181        -1.784936
 H        -3.097569         3.863570        -1.826257
