19
Iteration:  2395charge 0 multiplicity 1
 C         1.267461         0.429539         0.278109
 C        -0.241504         0.221979         0.249023
 C        -1.462705         0.032859        -0.027727
 C        -2.778477        -0.431624        -0.370985
 C        -2.812812        -1.966631        -0.706548
 C        -3.410312         0.477099        -1.509992
 O        -3.478166         1.877822        -1.293719
 C        -2.837105         2.729478        -2.265475
 O        -2.077183         2.395886        -3.133219
 H         1.663274         1.469283         0.002676
 H         1.677742         0.341024         1.280466
 H         1.605560        -0.617183        -0.087667
 H        -3.389848        -0.419308         0.534133
 H        -1.866406        -2.429062        -0.204276
 H        -3.700612        -2.493812        -0.222903
 H        -2.816493        -2.153912        -1.820738
 H        -2.747993         0.352072        -2.428962
 H        -4.434543         0.102347        -1.644338
 H        -3.004766         3.796529        -1.960524
