19
Iteration:  3994
 C         1.470985        -0.376303         0.868672
 C         0.108625        -0.437446         0.299732
 C        -0.994431        -0.314070        -0.224337
 C        -2.471822        -0.031145        -0.428856
 C        -3.209696        -0.996813        -1.254177
 C        -2.302509         1.401768        -0.926082
 O        -3.434477         2.231787        -1.254830
 C        -3.699100         2.383514        -2.586920
 O        -3.151874         1.693718        -3.383179
 H         2.328839        -1.137376         0.510605
 H         1.944797         0.570737         0.925688
 H         1.406137        -0.617204         1.939586
 H        -2.939122        -0.002525         0.605388
 H        -4.164420        -1.028884        -0.840198
 H        -2.819517        -0.846962        -2.272374
 H        -2.712546        -1.982551        -0.999631
 H        -2.010797         1.980786         0.005524
 H        -1.485285         1.515826        -1.613315
 H        -4.227978         3.393097        -2.673992
