19
Iteration:  1484
 C         1.164438         0.076551         1.188250
 C         0.003197         0.010816         0.289545
 C        -1.135201         0.205295        -0.095999
 C        -2.549745        -0.051269        -0.745387
 C        -3.005789        -1.544289        -0.514643
 C        -2.609719         0.330836        -2.183114
 O        -2.219795         1.665404        -2.672388
 C        -3.083537         2.625513        -2.348045
 O        -4.159093         2.446903        -1.767908
 H         0.870209         0.630555         2.038470
 H         1.602097        -0.891851         1.358629
 H         1.835070         0.711345         0.544807
 H        -3.261209         0.606619        -0.266135
 H        -3.135622        -2.127974        -1.404340
 H        -2.328809        -2.147513         0.058458
 H        -3.899041        -1.673646         0.038683
 H        -2.038004        -0.332787        -2.854924
 H        -3.705077         0.237079        -2.448084
 H        -2.501663         3.582570        -2.740783
