19
Iteration:   772
 C         1.493223        -0.242650         0.654983
 C         0.099444        -0.095344         0.211099
 C        -1.088800         0.079429         0.056897
 C        -2.492909         0.084099        -0.336157
 C        -3.107328        -1.403228        -0.111192
 C        -2.597749         0.427641        -1.825790
 O        -2.286581         1.764319        -2.114282
 C        -3.282815         2.683880        -2.378585
 O        -4.313742         2.471120        -2.931536
 H         1.763848         0.188576         1.650886
 H         1.579993        -1.369528         0.607062
 H         2.157298         0.026870        -0.148707
 H        -3.068715         0.756735         0.322477
 H        -3.104883        -1.542143         1.013319
 H        -4.156298        -1.576274        -0.516289
 H        -2.419673        -2.171382        -0.575015
 H        -1.863595        -0.188780        -2.415887
 H        -3.669526         0.173884        -2.124249
 H        -3.118566         3.767391        -1.987772
