19
Iteration:  4688charge 0 multiplicity 1
 C         1.511048        -0.690623         1.077732
 C         0.200422        -0.378541         0.470768
 C        -0.871921        -0.293085        -0.021670
 C        -2.216831         0.131382        -0.296537
 C        -3.160647        -1.119313        -0.655807
 C        -2.192682         1.207582        -1.463741
 O        -3.325406         1.059610        -2.407593
 C        -3.855941         2.258301        -2.801180
 O        -3.554883         3.409184        -2.647226
 H         1.329403        -0.203955         2.069745
 H         1.522922        -1.819089         1.123978
 H         2.450183        -0.455204         0.674961
 H        -2.724725         0.645892         0.581035
 H        -3.698344        -0.749489        -1.609391
 H        -2.554069        -2.005252        -0.903984
 H        -3.952198        -1.316601         0.118093
 H        -2.341643         2.205468        -1.053369
 H        -1.349307         1.050510        -2.111496
 H        -4.790158         1.991357        -3.377399
