19
Iteration:  3863
 C         1.530090        -0.842487         0.503966
 C         0.092780        -0.422731         0.471240
 C        -1.057203        -0.020327         0.339716
 C        -2.476278         0.155610        -0.185983
 C        -2.747830        -0.997598        -1.123037
 C        -2.465335         1.532446        -0.840953
 O        -3.648215         1.970526        -1.422766
 C        -3.870020         2.167227        -2.733781
 O        -3.015256         2.118754        -3.578328
 H         2.125460        -0.178965        -0.252511
 H         1.969632        -0.795282         1.453230
 H         1.461114        -1.834179         0.103565
 H        -3.157320         0.090553         0.633163
 H        -3.543613        -0.759587        -1.835585
 H        -1.892542        -1.051559        -1.892568
 H        -2.864380        -1.906705        -0.449881
 H        -2.249394         2.421473        -0.092196
 H        -1.649677         1.451408        -1.559427
 H        -4.896073         2.491709        -2.897438
