19
Iteration:  4555
 C         1.469594        -0.731295         0.810948
 C         0.042950        -0.305150         0.666783
 C        -1.073378        -0.087559         0.323419
 C        -2.370929         0.091074        -0.302469
 C        -2.708105        -1.167787        -0.986919
 C        -2.308507         1.218680        -1.324874
 O        -3.624682         1.250387        -1.864022
 C        -3.904109         2.360047        -2.639768
 O        -3.144960         3.091867        -3.238900
 H         1.350994        -1.879055         1.047786
 H         1.991351        -0.956780        -0.134879
 H         2.009920        -0.284508         1.598479
 H        -3.244445         0.358830         0.343851
 H        -3.776480        -1.355456        -0.942166
 H        -2.398781        -1.168069        -2.128213
 H        -2.053934        -1.935218        -0.483283
 H        -1.981042         2.160238        -0.761817
 H        -1.649542         0.998126        -2.146503
 H        -4.943452         2.288470        -2.948242
