19
Iteration:  3733charge 0 multiplicity 1
 C         1.554808        -0.904849         0.990166
 C         0.232697        -0.573975         0.254991
 C        -0.902288        -0.131031         0.118499
 C        -2.312110         0.217884        -0.171505
 C        -2.972350        -0.871472        -1.062320
 C        -2.202377         1.526230        -1.033604
 O        -3.631497         1.751085        -1.438528
 C        -4.015802         2.128513        -2.720362
 O        -3.289742         2.471680        -3.649434
 H         1.724296        -0.127644         1.860306
 H         1.552512        -1.979742         1.254721
 H         2.308244        -0.737778         0.241880
 H        -2.775242         0.401558         0.825801
 H        -4.015139        -0.806021        -1.240138
 H        -2.322024        -0.910966        -1.967632
 H        -2.905554        -1.860700        -0.580329
 H        -1.998534         2.485591        -0.408739
 H        -1.537422         1.411680        -1.886067
 H        -5.121200         2.088930        -2.851564
