19
Iteration:  2494
 C         1.273228         0.106399         0.687096
 C        -0.109984         0.223310         0.119994
 C        -1.211979         0.077407        -0.334911
 C        -2.700068        -0.288795        -0.494523
 C        -2.621170        -1.876405        -0.675974
 C        -3.460903         0.479983        -1.488276
 O        -3.528864         1.910850        -1.197100
 C        -2.963157         2.746945        -2.250653
 O        -2.397266         2.410497        -3.255961
 H         2.060229        -0.247655        -0.061471
 H         1.648910         1.007373         1.012131
 H         0.962214        -0.541835         1.488858
 H        -3.204007        -0.078692         0.453490
 H        -3.081124        -2.568147         0.076207
 H        -3.195270        -2.100090        -1.621868
 H        -1.611008        -2.281598        -0.549160
 H        -3.136386         0.410129        -2.575250
 H        -4.474647         0.106966        -1.532296
 H        -2.834126         3.769585        -1.831281
