19
Iteration:  1857
 C         1.452005         0.118080         0.667462
 C         0.027779         0.009780         0.353031
 C        -1.158795        -0.034041         0.090401
 C        -2.592543        -0.277219        -0.362668
 C        -2.921280        -1.686898        -0.662079
 C        -3.098635         0.577878        -1.576050
 O        -2.945030         1.950364        -1.267962
 C        -3.013084         2.715056        -2.419346
 O        -3.380597         2.302920        -3.510923
 H         1.647275         0.025917         1.706142
 H         1.939668        -0.552849         0.012853
 H         1.792901         1.133443         0.240514
 H        -3.195570         0.162502         0.465095
 H        -2.430942        -1.895335        -1.617987
 H        -2.707959        -2.354546         0.156192
 H        -3.964862        -1.837285        -0.960730
 H        -2.572422         0.360286        -2.559756
 H        -4.152890         0.270220        -1.673589
 H        -2.711719         3.794702        -2.029169
