19
Iteration:  1432
 C         1.076897         0.268590         1.103100
 C        -0.158620         0.208515         0.464414
 C        -1.086149         0.061217        -0.351575
 C        -2.468841        -0.143461        -0.829766
 C        -3.066904        -1.529719        -0.486992
 C        -2.661703         0.133982        -2.357974
 O        -2.292922         1.546408        -2.752362
 C        -2.996395         2.651756        -2.236256
 O        -3.949926         2.567293        -1.466484
 H         0.810739        -0.142121         2.074619
 H         1.746146        -0.486616         0.696617
 H         1.612948         1.294458         1.190457
 H        -3.057327         0.644397        -0.277636
 H        -2.442414        -2.371052        -0.224075
 H        -3.751936        -1.539592         0.400291
 H        -3.708446        -1.788186        -1.356477
 H        -2.005793        -0.490052        -2.996984
 H        -3.725124        -0.041280        -2.653575
 H        -2.468165         3.522979        -2.639680
