19
Iteration:   657charge 0 multiplicity 1
 C         1.681524        -0.127673         0.607898
 C         0.242073        -0.261042         0.166334
 C        -0.989306        -0.116028        -0.003024
 C        -2.468100         0.005976        -0.240535
 C        -3.159437        -1.393214        -0.185873
 C        -3.017858         0.616187        -1.562008
 O        -2.481762         1.885641        -1.778649
 C        -3.154161         2.692724        -2.646209
 O        -4.177265         2.354223        -3.208970
 H         1.969908        -1.078789         0.905522
 H         2.456271         0.464761         0.170083
 H         1.620182         0.420164         1.646653
 H        -2.888615         0.704757         0.585123
 H        -3.250952        -1.791051         0.843239
 H        -4.173682        -1.449956        -0.600902
 H        -2.595867        -2.186487        -0.747458
 H        -2.923434        -0.028207        -2.450612
 H        -4.067483         0.691549        -1.288392
 H        -2.445273         3.641330        -2.556469
