19
Iteration:  2619charge 0 multiplicity 1
 C         1.139204         0.520336         0.259633
 C        -0.254081         0.100428         0.361549
 C        -1.431547        -0.285632         0.171628
 C        -2.721105        -0.432955        -0.429598
 C        -3.041307        -1.910931        -0.751288
 C        -2.830291         0.397076        -1.705598
 O        -2.818192         1.756161        -1.203801
 C        -3.036232         2.739030        -2.076319
 O        -2.768167         2.709717        -3.257210
 H         1.867449        -0.116278         0.762877
 H         1.219452         0.581053        -0.771497
 H         1.103677         1.641968         0.401988
 H        -3.318119        -0.001953         0.373666
 H        -3.688233        -2.002368        -1.648410
 H        -2.231120        -2.569960        -1.027625
 H        -3.555452        -2.586176        -0.052519
 H        -1.961099         0.303929        -2.329170
 H        -3.716902         0.373307        -2.369378
 H        -3.434267         3.627582        -1.539016
