19
Iteration:  3924
 C         1.437113        -0.471785         0.443590
 C        -0.013763        -0.414137         0.511111
 C        -1.203380        -0.234310         0.323961
 C        -2.471255         0.136316        -0.247659
 C        -2.981845        -0.900637        -1.406010
 C        -2.143118         1.466883        -0.881935
 O        -3.505849         2.025461        -1.209699
 C        -3.761871         2.079928        -2.555804
 O        -3.037994         1.912747        -3.546639
 H         1.929942        -0.449922        -0.464085
 H         2.044551         0.326622         1.088785
 H         1.878595        -1.428907         0.937236
 H        -3.331016         0.186763         0.510725
 H        -3.425414        -0.181901        -2.122155
 H        -2.196391        -1.587017        -1.667238
 H        -3.846932        -1.521582        -1.288278
 H        -1.577012         2.157142        -0.386523
 H        -1.576322         1.182044        -1.792667
 H        -4.775942         2.569778        -2.584055
