19
Iteration:  2197charge 0 multiplicity 1
 C         0.980977         0.965699        -0.258106
 C        -0.431186         0.435712         0.075351
 C        -1.577153         0.127848        -0.034848
 C        -2.897382        -0.449352        -0.385886
 C        -2.975497        -1.925490        -0.815410
 C        -3.496905         0.360519        -1.503003
 O        -3.347170         1.786257        -1.210394
 C        -2.394053         2.444977        -1.846217
 O        -1.715381         1.997390        -2.765562
 H         1.745967         0.544080         0.304199
 H         0.951551         0.713781        -1.257358
 H         1.198386         2.032418         0.031515
 H        -3.542305        -0.289349         0.479607
 H        -3.928349        -2.118318        -1.299485
 H        -2.143765        -2.079974        -1.509680
 H        -3.008256        -2.741579        -0.064684
 H        -3.097284         0.123098        -2.437265
 H        -4.595367         0.373997        -1.551524
 H        -2.271387         3.601393        -1.466560
