19
Iteration:  4010
 C         1.446591        -0.444346         0.964277
 C         0.163108        -0.374551         0.270035
 C        -0.957021        -0.320284        -0.211820
 C        -2.393790         0.019249        -0.379918
 C        -3.248122        -1.023335        -1.336780
 C        -2.226629         1.476243        -0.908725
 O        -3.479207         2.210966        -1.212084
 C        -3.673464         2.355568        -2.552847
 O        -3.181736         1.681713        -3.425165
 H         1.904180        -1.277851         0.567346
 H         2.012571         0.531561         0.745835
 H         1.332902        -0.391943         2.067089
 H        -2.755213         0.041454         0.630702
 H        -4.340313        -1.267027        -0.913244
 H        -3.493516        -0.508662        -2.258884
 H        -2.735477        -1.984526        -1.428998
 H        -1.655140         2.093669        -0.231719
 H        -1.782153         1.385543        -1.996746
 H        -4.469650         3.040279        -2.752393
