19
Iteration:  3971
 C         1.415732        -0.356269         0.763372
 C         0.133462        -0.447378         0.278634
 C        -1.049142        -0.414959        -0.000757
 C        -2.414727        -0.040331        -0.362962
 C        -3.188553        -1.093957        -1.321771
 C        -2.247555         1.552567        -0.811816
 O        -3.505285         2.271789        -1.213999
 C        -3.641564         2.354953        -2.600951
 O        -3.131521         1.722796        -3.506362
 H         2.180915        -0.841982         0.021670
 H         1.795581         0.646821         0.903610
 H         1.685652        -0.853609         1.735151
 H        -3.050424        -0.064364         0.587106
 H        -4.147779        -0.719497        -1.477510
 H        -2.396154        -1.371045        -2.068183
 H        -3.305526        -2.031814        -0.739043
 H        -1.770149         2.241394        -0.068153
 H        -1.637212         1.521428        -1.637196
 H        -4.492249         3.113358        -2.695146
