19
Iteration:   611
 C         1.459169        -0.135923         0.414176
 C         0.059240         0.004921         0.247078
 C        -1.078467        -0.208130        -0.137434
 C        -2.482814        -0.097226        -0.263579
 C        -3.058637        -1.462374        -0.014409
 C        -2.990357         0.625601        -1.581797
 O        -2.474936         1.976376        -1.607854
 C        -3.091011         2.680313        -2.560214
 O        -3.971301         2.295848        -3.305968
 H         1.887673        -0.882590        -0.256373
 H         1.950451         0.826303         0.222204
 H         1.809707        -0.296769         1.451041
 H        -2.761987         0.526324         0.656589
 H        -2.898707        -1.702906         1.051047
 H        -4.121917        -1.477313        -0.217294
 H        -2.697324        -2.297221        -0.627977
 H        -2.520437         0.065888        -2.362363
 H        -4.062592         0.561389        -1.666659
 H        -2.476800         3.667469        -2.524463
