19
Iteration:  4584
 C         1.389055        -0.877111         0.741643
 C         0.070187        -0.216675         0.717301
 C        -1.047808         0.078297         0.418686
 C        -2.330243         0.115397        -0.266196
 C        -2.803212        -1.256426        -0.997090
 C        -2.242352         1.366720        -1.374214
 O        -3.485122         1.157458        -2.010614
 C        -3.915236         2.212529        -2.721157
 O        -3.239581         3.162506        -3.041450
 H         1.177269        -1.717226         1.364813
 H         1.596706        -1.297241        -0.204522
 H         2.308906        -0.391329         1.189505
 H        -3.187653         0.390490         0.386814
 H        -3.847050        -1.342434        -0.785712
 H        -2.661729        -1.094028        -2.013758
 H        -2.162943        -1.998686        -0.627842
 H        -1.927820         2.337858        -1.050729
 H        -1.418972         1.130319        -2.141569
 H        -4.962236         2.029786        -3.143868
