19
Iteration:  3063
 C         1.371254        -0.139981         1.145945
 C         0.100346        -0.284036         0.326289
 C        -1.077681        -0.132747        -0.062538
 C        -2.511276        -0.224586        -0.510756
 C        -2.761387        -1.704153        -0.792774
 C        -2.891056         0.584113        -1.792857
 O        -3.015074         2.031485        -1.350530
 C        -3.274886         2.907805        -2.281605
 O        -3.524562         2.625454        -3.435560
 H         1.578437        -1.173942         1.448907
 H         2.241093         0.023119         0.461281
 H         1.286969         0.548894         1.996066
 H        -3.135204         0.037604         0.343178
 H        -3.787546        -1.846171        -1.191154
 H        -2.089403        -2.043166        -1.655730
 H        -2.617527        -2.494391        -0.053797
 H        -2.292215         0.409971        -2.660690
 H        -3.900597         0.235410        -2.241209
 H        -3.340087         3.962102        -1.889292
