19
Iteration:   968
 C         1.325535        -0.004003         0.916613
 C         0.044471         0.175842         0.235259
 C        -1.103549         0.045554        -0.177032
 C        -2.529270        -0.024270        -0.559123
 C        -3.112335        -1.396121        -0.429893
 C        -2.722476         0.247386        -2.092080
 O        -2.246746         1.509188        -2.508781
 C        -3.046535         2.527277        -2.349435
 O        -4.190488         2.650343        -1.921321
 H         1.876601        -0.894054         0.627955
 H         2.000180         0.901116         0.687114
 H         0.997480         0.089551         2.154401
 H        -3.023539         0.827342        -0.000419
 H        -3.762976        -1.446234         0.457369
 H        -3.690099        -1.505319        -1.337468
 H        -2.359677        -2.170119        -0.319966
 H        -2.153621        -0.573156        -2.609270
 H        -3.815810         0.101259        -2.364648
 H        -2.564741         3.489011        -2.580401
