19
Iteration:  3885
 C         1.453619        -0.714650         0.394794
 C         0.041724        -0.392269         0.600819
 C        -1.149423        -0.207887         0.415456
 C        -2.390874         0.192579        -0.229911
 C        -2.777683        -0.990261        -1.215984
 C        -2.261529         1.571045        -0.864383
 O        -3.670280         1.983958        -1.329292
 C        -3.836046         2.105385        -2.672662
 O        -3.020750         2.065663        -3.583841
 H         1.846437        -0.128921        -0.555563
 H         1.924140        -0.288528         1.206515
 H         1.421549        -1.767428         0.247925
 H        -3.183576         0.388229         0.459322
 H        -3.253517        -0.525929        -2.099685
 H        -1.981575        -1.601088        -1.817464
 H        -3.466189        -1.774948        -0.743833
 H        -1.915883         2.415938        -0.094583
 H        -1.676157         1.593934        -1.778049
 H        -4.851401         2.344803        -2.974246
