19
Iteration:  4808
 C         1.248740        -0.473661         1.073984
 C         0.069774        -0.003269         0.421467
 C        -1.069719         0.248770         0.049792
 C        -2.375155         0.107760        -0.648971
 C        -3.120181        -1.284672        -0.540440
 C        -2.105311         0.732016        -2.073801
 O        -3.422558         1.035404        -2.735368
 C        -3.641188         2.314414        -2.607218
 O        -3.165071         3.098894        -1.752304
 H         2.165436         0.203480         1.079354
 H         0.988737        -0.826196         2.149113
 H         1.531572        -1.390781         0.620516
 H        -3.056922         0.927726        -0.201932
 H        -4.195034        -1.035377        -0.947978
 H        -2.612531        -1.996161        -1.187579
 H        -2.990280        -1.715697         0.462771
 H        -1.462365         1.664520        -1.901993
 H        -1.766707        -0.103149        -2.718339
 H        -4.511603         2.661086        -3.280514
