19
Iteration:  3138charge 0 multiplicity 1
 C         1.185235         0.024196         0.833971
 C        -0.200677         0.019271         0.384632
 C        -1.408268        -0.005047         0.080098
 C        -2.720021        -0.365119        -0.577319
 C        -2.630468        -1.892214        -0.740505
 C        -2.825884         0.483730        -1.811712
 O        -2.460174         1.767977        -1.430229
 C        -3.127918         2.860017        -2.164942
 O        -3.590584         2.846758        -3.295924
 H         1.484210        -0.593056         1.763256
 H         1.649724        -0.652558         0.192467
 H         1.700677         1.088243         0.838892
 H        -3.507776        -0.190538         0.172106
 H        -3.583165        -2.304799        -1.172445
 H        -1.876595        -2.267259        -1.535766
 H        -2.389306        -2.531232         0.120692
 H        -2.381428         0.050131        -2.686125
 H        -3.944575         0.551224        -2.056291
 H        -2.825549         3.768082        -1.703150
