19
Iteration:  4100
 C         1.566446        -0.907340         0.968506
 C         0.117055        -0.562012         0.700661
 C        -0.965874        -0.153895         0.245886
 C        -2.270717         0.266467        -0.395336
 C        -2.774610        -0.905387        -1.342443
 C        -2.189569         1.642668        -1.157211
 O        -3.564103         2.090680        -1.337127
 C        -4.040838         2.179381        -2.605454
 O        -3.476701         2.001949        -3.685429
 H         1.690215        -1.765805         1.526245
 H         2.055348        -1.136133         0.003997
 H         2.142794        -0.162764         1.632288
 H        -2.996417         0.440050         0.387446
 H        -2.118897        -1.752313        -1.216934
 H        -3.739533        -1.405844        -1.035847
 H        -2.590611        -0.702333        -2.393806
 H        -1.615178         2.437603        -0.570252
 H        -1.708060         1.461836        -2.097086
 H        -5.018644         2.607467        -2.487692
