19
Iteration:  4923
 C         1.175266         0.158295         1.258477
 C         0.106870        -0.141073         0.285108
 C        -0.930448        -0.293819        -0.266974
 C        -2.330133         0.015599        -0.710454
 C        -3.466148        -1.065149        -0.727602
 C        -2.163167         0.464111        -2.232241
 O        -3.418458         1.072809        -2.754492
 C        -3.633015         2.378337        -2.261357
 O        -2.881504         2.976712        -1.509079
 H         2.110955         0.118056         0.679505
 H         1.046488         1.172723         1.582143
 H         1.202403        -0.416413         2.220798
 H        -2.797002         0.822462        -0.085880
 H        -4.355691        -0.476912        -0.920539
 H        -3.271590        -1.809247        -1.597725
 H        -3.503299        -1.592867         0.263270
 H        -1.285021         1.152703        -2.391109
 H        -2.053836        -0.543730        -2.641859
 H        -4.617327         2.798574        -2.661848
