19
Iteration:  2295
 C         0.891552         1.057529         0.135880
 C        -0.267424         0.226807        -0.033635
 C        -1.349006        -0.332988        -0.314245
 C        -2.786848        -0.524489        -0.433936
 C        -3.307563        -1.882476        -0.429461
 C        -3.365363         0.301818        -1.646071
 O        -3.150188         1.667168        -1.237443
 C        -2.526308         2.588211        -1.933095
 O        -1.914851         2.465827        -2.967381
 H         0.904798         1.793386         1.026816
 H         1.752313         0.354154         0.171729
 H         1.229970         1.638663        -0.842721
 H        -3.229892        -0.007063         0.423489
 H        -3.815502        -2.193621         0.521625
 H        -3.999003        -2.070602        -1.291430
 H        -2.506040        -2.587650        -0.768188
 H        -2.859900         0.113719        -2.566501
 H        -4.475437         0.251202        -1.693997
 H        -2.608734         3.583949        -1.472292
