19
Iteration:  1711charge 0 multiplicity 1
 C         1.452809        -0.088207         0.901916
 C         0.089791        -0.147274         0.346151
 C        -1.089458        -0.103323         0.116417
 C        -2.417287        -0.140108        -0.385437
 C        -2.962711        -1.584967        -0.431044
 C        -2.647963         0.532825        -1.804012
 O        -2.505994         1.969070        -1.691229
 C        -3.400670         2.713267        -2.412687
 O        -4.107503         2.488622        -3.350846
 H         1.922656        -0.940227         0.400964
 H         1.869131         0.932767         0.751145
 H         1.406069        -0.501005         1.864156
 H        -3.001842         0.594167         0.271997
 H        -3.727193        -1.542644        -1.212599
 H        -2.091761        -2.060340        -0.930323
 H        -3.230981        -2.027210         0.511446
 H        -1.969881         0.160659        -2.540126
 H        -3.679307         0.262701        -2.022642
 H        -3.205096         3.848438        -2.043150
