19
Iteration:  2341
 C         1.066775         0.783162         0.292294
 C        -0.248682         0.275987        -0.091154
 C        -1.377289        -0.208134        -0.209642
 C        -2.808657        -0.402748        -0.382871
 C        -3.195900        -1.974055        -0.494380
 C        -3.217746         0.362361        -1.706149
 O        -3.350593         1.744391        -1.262699
 C        -2.547119         2.662612        -1.953564
 O        -2.104941         2.403582        -3.043019
 H         0.992974         1.903333         0.534833
 H         1.620296         0.279642         1.064902
 H         1.872471         0.882511        -0.594327
 H        -3.344796         0.014600         0.477624
 H        -2.768201        -2.583647         0.364495
 H        -4.305439        -2.132722        -0.449708
 H        -2.945771        -2.359811        -1.497433
 H        -2.386830         0.246290        -2.444018
 H        -4.158015        -0.066723        -2.040871
 H        -2.541664         3.683066        -1.605432
