19
Iteration:   663
 C         1.622668        -0.097850         0.657732
 C         0.217263        -0.278986         0.086094
 C        -0.998555        -0.111072         0.055037
 C        -2.432028         0.010607        -0.206435
 C        -3.159211        -1.379166        -0.187257
 C        -2.971982         0.576494        -1.553115
 O        -2.466177         1.909381        -1.813119
 C        -3.147501         2.656732        -2.638919
 O        -4.207444         2.390940        -3.208549
 H         1.975245        -1.232149         1.002655
 H         2.536936         0.227047         0.028508
 H         1.588509         0.445535         1.535328
 H        -2.756499         0.717455         0.513890
 H        -3.047691        -1.814724         0.809538
 H        -4.139502        -1.557459        -0.673101
 H        -2.560903        -1.955237        -0.892935
 H        -2.937487        -0.105807        -2.409905
 H        -4.032920         0.600344        -1.214952
 H        -2.644326         3.582089        -2.564001
