19
Iteration:    54
 C         1.264529         0.412740        -0.682648
 C        -0.184637         0.209724        -0.325289
 C        -1.386158         0.280149        -0.123607
 C        -2.820773        -0.048602         0.021485
 C        -3.137944        -1.553907         0.269398
 C        -3.707948         0.354601        -1.190144
 O        -3.330867         1.952262        -1.301323
 C        -2.475834         2.384511        -2.302589
 O        -1.978359         1.787474        -3.201748
 H         1.354471         1.631408        -0.730789
 H         1.882403         0.058555         0.032052
 H         1.444226        -0.195605        -1.471049
 H        -3.236802         0.617558         0.847883
 H        -2.328426        -2.062363         0.770609
 H        -4.066409        -1.646689         0.800207
 H        -3.292165        -2.018923        -0.693332
 H        -3.578014        -0.215719        -2.126065
 H        -4.745779         0.347009        -0.951619
 H        -2.289233         3.396352        -2.062271
