19
Iteration:   900
 C         1.328624        -0.013840         0.722467
 C         0.002115        -0.168092         0.294975
 C        -1.122173         0.022989        -0.112904
 C        -2.514420         0.030195        -0.511130
 C        -3.159596        -1.268154        -0.198753
 C        -2.484767         0.251359        -2.117876
 O        -2.155740         1.683387        -2.289211
 C        -3.158008         2.637390        -2.303230
 O        -4.344866         2.490529        -2.321152
 H         2.058457         0.292434        -0.097503
 H         1.220495         0.896297         1.354816
 H         1.708988        -0.879021         1.491826
 H        -3.089815         0.799830         0.037733
 H        -2.730566        -1.884847         0.581261
 H        -4.227544        -1.154999        -0.008238
 H        -3.103845        -1.935661        -1.045879
 H        -1.640503        -0.209454        -2.664603
 H        -3.413822        -0.002706        -2.686425
 H        -2.700323         3.620306        -2.118597
