19
Iteration:   736
 C         1.447460        -0.292328         0.608312
 C         0.096629         0.025822         0.421080
 C        -1.025392         0.112023        -0.006590
 C        -2.402409        -0.029490        -0.487676
 C        -3.049304        -1.357628        -0.073049
 C        -2.764838         0.429897        -1.854536
 O        -2.393751         1.783157        -1.889020
 C        -3.189851         2.690889        -2.492023
 O        -4.278468         2.415519        -2.987246
 H         1.737922        -0.626850         1.524545
 H         1.499216        -1.203037        -0.016973
 H         2.293707         0.471313         0.245368
 H        -2.986034         0.817657         0.056302
 H        -2.506070        -1.731795         0.794685
 H        -4.158094        -1.345803         0.138395
 H        -2.915565        -2.077135        -0.911677
 H        -2.285180        -0.126429        -2.717524
 H        -3.861330         0.248280        -1.923816
 H        -2.640722         3.682205        -2.199096
