19
Iteration:  3445charge 0 multiplicity 1
 C         1.268049        -0.166732         1.104074
 C        -0.092628        -0.148211         0.715511
 C        -1.169458        -0.054373         0.073328
 C        -2.514620        -0.313678        -0.493769
 C        -2.727192        -1.609201        -1.039653
 C        -2.832138         0.550962        -1.793739
 O        -2.515568         1.949038        -1.647991
 C        -3.146040         2.851325        -2.332500
 O        -3.945147         2.626695        -3.246614
 H         1.996531        -0.652668         0.314185
 H         1.644379         0.750982         1.462481
 H         1.191908        -0.983575         1.902755
 H        -3.170301         0.012656         0.364615
 H        -3.779800        -1.632990        -1.263289
 H        -2.185386        -1.748682        -1.946989
 H        -2.391172        -2.325294        -0.285349
 H        -2.088158         0.056175        -2.371481
 H        -3.808188         0.381348        -2.347000
 H        -2.700760         3.855055        -1.951528
