19
Iteration:  4229charge 0 multiplicity 1
 C         1.445469        -1.060437         1.304656
 C         0.189468        -0.557298         0.649466
 C        -0.770512        -0.154999         0.045726
 C        -2.117932         0.322505        -0.457590
 C        -2.830839        -0.662445        -1.354654
 C        -2.169788         1.692424        -1.172740
 O        -3.544209         1.744604        -1.426787
 C        -4.130276         2.038963        -2.625013
 O        -3.575925         2.312414        -3.663682
 H         1.696640        -0.502140         2.249428
 H         1.291752        -2.184580         1.625641
 H         2.245057        -1.066682         0.563974
 H        -2.698556         0.611511         0.467542
 H        -3.171413        -0.425342        -2.310746
 H        -2.043858        -1.443990        -1.618016
 H        -3.484543        -1.385808        -0.902727
 H        -1.750157         2.477629        -0.425100
 H        -1.547025         1.764544        -2.069218
 H        -5.247404         2.040850        -2.459403
