19
Iteration:   956
 C         1.279133         0.009785         0.917773
 C         0.028662         0.176980         0.237998
 C        -1.081809         0.023283        -0.276232
 C        -2.499074        -0.037230        -0.600194
 C        -3.174366        -1.421064        -0.333576
 C        -2.694618         0.291722        -2.048868
 O        -2.179206         1.552786        -2.475482
 C        -3.054625         2.655448        -2.316887
 O        -4.223500         2.541678        -1.989737
 H         1.796133        -0.825803         0.415040
 H         1.950284         0.921830         0.788910
 H         1.383481        -0.327149         2.120606
 H        -3.142303         0.614982         0.052912
 H        -3.634467        -1.428435         0.673751
 H        -3.982699        -1.731638        -0.990070
 H        -2.443314        -2.207126        -0.352011
 H        -2.070085        -0.398120        -2.680753
 H        -3.795608         0.268616        -2.354756
 H        -2.479679         3.448650        -2.827005
