19
Iteration:  4432charge 0 multiplicity 1
 C         1.414456        -0.196788         1.089923
 C         0.154332        -0.365207         0.507139
 C        -0.936245        -0.544198         0.038711
 C        -2.281258        -0.138760        -0.459177
 C        -3.109621        -1.192005        -1.308530
 C        -2.263324         1.100794        -1.358699
 O        -3.512773         1.738924        -1.340014
 C        -3.872224         2.426951        -2.497969
 O        -3.115058         2.648654        -3.404476
 H         2.303483        -0.491911         0.528713
 H         1.487985         0.839231         1.321584
 H         1.342266        -0.775485         2.105720
 H        -2.888167         0.154544         0.421394
 H        -3.908751        -0.550574        -1.840522
 H        -2.466879        -1.700224        -1.984153
 H        -3.824726        -1.804599        -0.730561
 H        -1.592451         1.759159        -0.878195
 H        -2.016147         0.684043        -2.387806
 H        -4.889717         2.815526        -2.416967
