19
Iteration:  3921
 C         1.460659        -0.497155         0.429282
 C        -0.008132        -0.405912         0.540962
 C        -1.207865        -0.240148         0.350099
 C        -2.500935         0.181343        -0.266051
 C        -2.974579        -0.919281        -1.405707
 C        -2.149087         1.462653        -0.886306
 O        -3.516263         2.002181        -1.213395
 C        -3.752639         2.071053        -2.561059
 O        -3.040810         1.926984        -3.538492
 H         1.862830        -0.431574        -0.580491
 H         2.042420         0.203810         1.128561
 H         1.900914        -1.375501         0.855496
 H        -3.320722         0.280092         0.412981
 H        -3.322240        -0.142102        -2.160977
 H        -2.072154        -1.475499        -1.665307
 H        -3.924561        -1.492923        -1.217966
 H        -1.589270         2.284636        -0.360770
 H        -1.555506         1.175587        -1.861226
 H        -4.753693         2.485672        -2.555606
