19
Iteration:  3918
 C         1.481657        -0.513385         0.428894
 C        -0.001845        -0.397772         0.560791
 C        -1.210745        -0.246719         0.372114
 C        -2.517368         0.197950        -0.275357
 C        -2.972631        -0.916582        -1.402646
 C        -2.154549         1.464990        -0.905674
 O        -3.516018         1.982467        -1.223030
 C        -3.747609         2.073205        -2.564186
 O        -3.043390         1.936827        -3.527300
 H         1.797919        -0.395492        -0.706033
 H         1.974775         0.118714         1.094231
 H         1.901544        -1.434175         0.792191
 H        -3.342043         0.370843         0.397862
 H        -3.191964        -0.220270        -2.207607
 H        -1.996560        -1.403075        -1.694908
 H        -3.910416        -1.465040        -1.121984
 H        -1.631563         2.329992        -0.323588
 H        -1.608475         1.245159        -1.827062
 H        -4.801203         2.413415        -2.584664
