19
Iteration:  4122charge 0 multiplicity 1
 C         1.373081        -1.066253         0.988439
 C         0.187453        -0.417640         0.595288
 C        -0.882786         0.011889         0.266872
 C        -2.170411         0.202313        -0.376019
 C        -2.588039        -0.941749        -1.275834
 C        -2.233951         1.548767        -1.115754
 O        -3.640806         2.037186        -1.402577
 C        -4.059126         2.332663        -2.637228
 O        -3.520728         1.995856        -3.673839
 H         1.335776        -1.718894         1.767430
 H         1.849842        -1.566711         0.141167
 H         2.066150        -0.294415         1.459083
 H        -2.894129         0.290326         0.419573
 H        -1.855396        -1.692911        -1.471986
 H        -3.403249        -1.510551        -0.717303
 H        -2.816694        -0.539975        -2.285199
 H        -1.726608         2.359856        -0.492678
 H        -1.742227         1.466359        -2.066048
 H        -4.992505         2.862474        -2.522005
