19
Iteration:  2491
 C         1.255102         0.068176         0.670497
 C        -0.105725         0.244043         0.105207
 C        -1.210853         0.078055        -0.317361
 C        -2.725012        -0.291744        -0.469017
 C        -2.617504        -1.858320        -0.700865
 C        -3.466078         0.482087        -1.494909
 O        -3.542521         1.908705        -1.195719
 C        -2.965618         2.746484        -2.250093
 O        -2.387999         2.396617        -3.250897
 H         2.128362        -0.108772         0.014361
 H         1.743928         1.041441         1.058774
 H         1.074563        -0.551746         1.517749
 H        -3.223919        -0.010688         0.497134
 H        -3.039845        -2.544408         0.092171
 H        -3.134876        -2.112284        -1.623631
 H        -1.557060        -2.162344        -0.611320
 H        -3.038566         0.345189        -2.539135
 H        -4.491163         0.045108        -1.527499
 H        -2.760585         3.789687        -1.891662
