19
Iteration:  3915
 C         1.492548        -0.532215         0.416070
 C         0.002864        -0.390450         0.573333
 C        -1.212821        -0.252538         0.391680
 C        -2.519702         0.190614        -0.275236
 C        -2.963651        -0.899485        -1.393401
 C        -2.162389         1.482989        -0.925232
 O        -3.508967         1.965835        -1.239190
 C        -3.756034         2.084050        -2.561136
 O        -3.041585         1.943697        -3.517421
 H         1.704103        -0.358611        -0.659415
 H         1.970182         0.185725         1.103731
 H         1.883683        -1.580141         0.724165
 H        -3.378108         0.441420         0.441888
 H        -3.109804        -0.332954        -2.304554
 H        -2.027567        -1.374920        -1.697254
 H        -3.808821        -1.448900        -1.042282
 H        -1.725187         2.242349        -0.321924
 H        -1.640067         1.345840        -1.819578
 H        -4.863483         2.341669        -2.651315
