19
Iteration:   803charge 0 multiplicity 1
 C         1.495725        -0.117816         0.624006
 C         0.065217        -0.271395         0.222153
 C        -1.130483        -0.011829         0.117654
 C        -2.485331         0.055369        -0.422167
 C        -3.157494        -1.342688        -0.152084
 C        -2.561616         0.459124        -1.895418
 O        -2.241718         1.848708        -2.020417
 C        -3.213816         2.683679        -2.558120
 O        -4.374681         2.378571        -2.698736
 H         1.676189         0.810645         1.070739
 H         1.749606        -0.934616         1.311675
 H         2.255847        -0.374796        -0.200483
 H        -3.088741         0.845931         0.142243
 H        -3.468385        -1.315207         0.895268
 H        -4.002117        -1.701858        -0.773097
 H        -2.450463        -2.163976        -0.264654
 H        -1.833865        -0.083362        -2.562995
 H        -3.605907         0.341117        -2.287025
 H        -2.747629         3.716955        -2.696505
