19
Iteration:  3868
 C         1.515656        -0.803156         0.466520
 C         0.088333        -0.409403         0.510939
 C        -1.085402        -0.057062         0.365042
 C        -2.480731         0.154898        -0.201319
 C        -2.771835        -1.016477        -1.163238
 C        -2.435516         1.575000        -0.864292
 O        -3.654414         1.967367        -1.361898
 C        -3.847092         2.164508        -2.716267
 O        -3.003501         2.104675        -3.617932
 H         1.964083        -0.260985        -0.303402
 H         2.162885        -0.832206         1.465824
 H         1.676831        -1.892581         0.139799
 H        -3.234208         0.071067         0.652760
 H        -3.476146        -0.750662        -1.984746
 H        -1.842727        -1.014861        -1.691674
 H        -3.000482        -1.762904        -0.432536
 H        -2.209438         2.351413        -0.177747
 H        -1.593662         1.486949        -1.615621
 H        -4.960555         2.376268        -2.777271
