19
Iteration:  4308
 C         1.379592        -0.706541         1.114733
 C         0.031012        -0.333821         0.632634
 C        -1.053725        -0.155829         0.067080
 C        -2.311646         0.011179        -0.551559
 C        -2.633602        -1.284634        -1.350978
 C        -2.228193         1.308118        -1.339477
 O        -3.547405         2.062781        -1.318043
 C        -3.917594         2.529230        -2.460500
 O        -3.347829         2.199708        -3.485810
 H         2.079548         0.062158         0.930810
 H         1.184128        -1.049151         2.171464
 H         1.958186        -1.430060         0.440683
 H        -3.077459         0.185016         0.265596
 H        -3.744534        -1.380495        -1.285091
 H        -2.271008        -1.187526        -2.394026
 H        -2.184545        -2.129458        -0.786266
 H        -1.568287         1.999251        -0.643642
 H        -1.763896         1.247437        -2.346150
 H        -4.723987         3.298375        -2.469872
