19
Iteration:  4327
 C         1.400422        -0.594495         1.056080
 C         0.044407        -0.261270         0.631710
 C        -1.090775        -0.181383         0.185675
 C        -2.382770        -0.068348        -0.528570
 C        -2.706137        -1.355492        -1.403591
 C        -2.306918         1.262621        -1.323012
 O        -3.507282         2.040497        -1.227873
 C        -3.751612         2.569415        -2.451796
 O        -3.343788         2.247489        -3.553426
 H         2.200944         0.129428         0.656982
 H         1.343960        -0.725534         2.195597
 H         1.655310        -1.499502         0.630993
 H        -3.191078         0.164796         0.218665
 H        -3.641610        -1.786035        -1.519163
 H        -2.570161        -1.296266        -2.546806
 H        -1.988290        -2.127441        -1.149623
 H        -1.416720         1.860735        -0.991280
 H        -2.012144         1.001516        -2.294457
 H        -4.487346         3.449239        -2.325576
