19
Iteration:  3191charge 0 multiplicity 1
 C         1.188068         0.403111         0.686769
 C        -0.229638        -0.060573         0.526793
 C        -1.374886        -0.346736         0.184287
 C        -2.698269        -0.408210        -0.574858
 C        -2.975383        -1.886822        -1.009062
 C        -2.717905         0.515064        -1.752578
 O        -2.370787         1.903807        -1.331126
 C        -2.791396         2.755342        -2.337732
 O        -3.739937         2.697044        -3.101521
 H         1.150199         0.756210         1.785715
 H         1.807589        -0.447276         0.602495
 H         1.395687         1.327612        -0.019942
 H        -3.375894        -0.194591         0.288936
 H        -3.878659        -2.106776        -1.591445
 H        -2.217467        -2.312759        -1.692566
 H        -3.040275        -2.596374        -0.186733
 H        -1.935237         0.173672        -2.419096
 H        -3.743337         0.599796        -2.090609
 H        -2.416843         3.770146        -2.058362
