19
Iteration:  1475
 C         1.137959         0.119024         1.180708
 C        -0.068971         0.010406         0.315959
 C        -1.194979         0.158069        -0.160555
 C        -2.487852        -0.069529        -0.745196
 C        -2.970813        -1.507113        -0.474947
 C        -2.686544         0.252953        -2.273540
 O        -2.203882         1.667504        -2.647826
 C        -3.084094         2.628730        -2.340955
 O        -4.084238         2.460471        -1.713604
 H         1.079918         0.453434         2.185015
 H         1.706874        -0.768723         1.308037
 H         1.933565         0.798647         0.698709
 H        -3.186715         0.646099        -0.242725
 H        -2.865794        -2.009496        -1.417528
 H        -2.285923        -2.050464         0.197041
 H        -4.023644        -1.468445        -0.243803
 H        -2.058886        -0.361415        -2.954926
 H        -3.781603         0.177495        -2.516452
 H        -2.865047         3.654401        -2.878323
