19
Iteration:  1951
 C         1.301068         0.561952         0.279741
 C        -0.125790         0.125392         0.265256
 C        -1.327426        -0.049833        -0.036824
 C        -2.806616        -0.340276        -0.269643
 C        -3.099308        -1.913167        -0.444068
 C        -3.035555         0.317856        -1.610402
 O        -3.080632         1.743610        -1.297479
 C        -2.828131         2.698694        -2.191128
 O        -2.756352         2.557936        -3.393242
 H         1.532502         1.662283         0.535634
 H         1.906054        -0.170828         0.961059
 H         1.776952         0.246292        -0.629191
 H        -3.455035         0.117856         0.462657
 H        -4.038137        -2.277509         0.041416
 H        -3.141391        -2.049194        -1.568060
 H        -2.292577        -2.675360        -0.319008
 H        -2.345013         0.084859        -2.404182
 H        -4.050050         0.088906        -1.988074
 H        -2.651547         3.576062        -1.586501
