19
Iteration:  3361
 C         1.181371         0.127509         1.054164
 C        -0.155521        -0.038566         0.467917
 C        -1.288346        -0.078860        -0.013632
 C        -2.605564        -0.278512        -0.562430
 C        -2.745379        -1.766708        -0.971664
 C        -2.983069         0.410695        -1.797288
 O        -2.386763         1.730206        -1.694496
 C        -2.886112         2.790120        -2.237707
 O        -3.802167         2.773917        -3.010176
 H         1.606367         0.949862         0.443265
 H         1.055485         0.518165         2.083435
 H         1.846610        -0.717402         1.106495
 H        -3.320543        -0.080217         0.248044
 H        -3.671989        -2.102120        -1.525745
 H        -1.896118        -2.216502        -1.513331
 H        -3.007483        -2.394307        -0.067193
 H        -2.550685        -0.101153        -2.722561
 H        -4.003059         0.646082        -1.846941
 H        -2.463088         3.684938        -1.839903
