19
Iteration:  2431
 C         1.298545         0.212214         0.403772
 C        -0.207678         0.176592         0.304100
 C        -1.349446         0.141902        -0.031703
 C        -2.785772        -0.271982        -0.363679
 C        -2.626052        -1.721724        -0.816760
 C        -3.408162         0.485786        -1.532445
 O        -3.553431         1.856389        -1.328201
 C        -2.898003         2.715932        -2.222452
 O        -2.250447         2.246401        -3.131194
 H         1.845762         0.488804        -0.501827
 H         1.630917         0.546838         1.430224
 H         1.605176        -0.934139         0.262561
 H        -3.456136        -0.175800         0.499775
 H        -2.115780        -2.340674        -0.067673
 H        -3.646359        -2.134633        -0.960609
 H        -2.117585        -1.807281        -1.800522
 H        -2.847192         0.255201        -2.464531
 H        -4.415650         0.098231        -1.722497
 H        -3.113795         3.732869        -1.837035
