19
Iteration:  1651charge 0 multiplicity 1
 C         1.410441        -0.063287         0.821552
 C        -0.035183         0.024066         0.495973
 C        -1.129939        -0.226602         0.063139
 C        -2.436905        -0.180997        -0.537769
 C        -3.109928        -1.462534        -0.501800
 C        -2.497905         0.591758        -1.873652
 O        -2.328031         2.048557        -1.787409
 C        -3.279458         2.743541        -2.444809
 O        -4.236546         2.213102        -2.952295
 H         1.917021         0.026998        -0.160437
 H         1.958409         0.649374         1.429614
 H         1.731408        -1.031244         1.348351
 H        -2.954783         0.440624         0.218860
 H        -2.620689        -2.293754        -1.030184
 H        -3.235997        -1.897396         0.523928
 H        -4.104838        -1.479062        -1.057249
 H        -1.623823         0.316262        -2.538103
 H        -3.411521         0.414611        -2.459842
 H        -2.907942         3.788258        -2.345601
