19
Iteration:  2693charge 0 multiplicity 1
 C         1.037787         0.455364         0.402358
 C        -0.320985         0.063156         0.304812
 C        -1.521712        -0.211035         0.152665
 C        -2.827218        -0.474637        -0.414811
 C        -2.829781        -1.942992        -0.833628
 C        -2.963112         0.472878        -1.685373
 O        -2.537754         1.818159        -1.227395
 C        -2.737893         2.814795        -2.110751
 O        -3.134204         2.645735        -3.245247
 H         1.274890         0.742845         1.439773
 H         1.750258        -0.293942        -0.065441
 H         1.084254         1.352971        -0.294457
 H        -3.685262        -0.339824         0.309868
 H        -3.824545        -2.417162        -1.016018
 H        -2.251248        -2.206764        -1.773401
 H        -2.313401        -2.698965        -0.148125
 H        -2.265485         0.278771        -2.481784
 H        -4.032466         0.511445        -2.075653
 H        -2.241161         3.755303        -1.733633
