19
Iteration:  3158
 C         1.125724         0.154114         0.717299
 C        -0.261848        -0.132982         0.407894
 C        -1.417994        -0.043271         0.153383
 C        -2.709012        -0.373587        -0.460428
 C        -2.691253        -1.874594        -0.869021
 C        -2.849242         0.428438        -1.783341
 O        -2.449228         1.862917        -1.517361
 C        -2.915688         2.844261        -2.184631
 O        -3.619370         2.765586        -3.177782
 H         1.323420         0.013709         1.861722
 H         1.966484        -0.459642         0.395541
 H         1.425546         1.264048         0.515502
 H        -3.503809        -0.125150         0.319892
 H        -3.669394        -2.214140        -1.225225
 H        -1.907149        -2.112435        -1.641889
 H        -2.374005        -2.495815         0.002496
 H        -2.115103         0.141699        -2.537234
 H        -3.748583         0.369498        -2.392216
 H        -2.891539         3.777112        -1.582315
