19
Iteration:  2470
 C         1.231555         0.072739         0.624201
 C        -0.078884         0.186429         0.049113
 C        -1.320200         0.208762        -0.128291
 C        -2.648576        -0.237451        -0.377147
 C        -2.602219        -1.731960        -0.805931
 C        -3.426875         0.469989        -1.500051
 O        -3.554524         1.884116        -1.341214
 C        -2.897263         2.673977        -2.148471
 O        -2.399580         2.295038        -3.175485
 H         1.948916         0.108522        -0.243592
 H         1.619583         0.908378         1.241984
 H         1.085000        -0.824706         1.122778
 H        -3.221946        -0.240228         0.576660
 H        -2.914240        -2.491118        -0.019632
 H        -3.386131        -1.805265        -1.574774
 H        -1.616577        -2.188763        -0.975964
 H        -2.975610         0.322339        -2.526039
 H        -4.467294         0.110976        -1.621415
 H        -3.107374         3.763884        -1.905921
