19
Iteration:  3235charge 0 multiplicity 1
 C         1.089653         0.584953         0.825247
 C        -0.190559         0.049587         0.351789
 C        -1.220194        -0.491632        -0.039260
 C        -2.654949        -0.442373        -0.516850
 C        -3.217592        -1.757601        -1.046107
 C        -2.696408         0.548846        -1.734237
 O        -2.189723         1.742906        -1.420231
 C        -2.920243         2.716124        -2.112781
 O        -3.665636         2.576834        -3.068465
 H         1.137842         1.373131         1.679335
 H         1.479682        -0.209710         1.391387
 H         1.728107         1.060979         0.002441
 H        -3.305502         0.076824         0.250135
 H        -4.079767        -1.568165        -1.665210
 H        -2.621511        -2.443280        -1.665442
 H        -3.571883        -2.382996        -0.255796
 H        -2.076207         0.321411        -2.574447
 H        -3.759949         0.649121        -2.022723
 H        -2.725631         3.733644        -1.681425
