19
Iteration:  2540
 C         1.247161         0.380581         0.703435
 C        -0.039203         0.046197         0.118640
 C        -1.162589        -0.084895        -0.326135
 C        -2.619439        -0.342387        -0.453455
 C        -2.916782        -1.816380        -0.666743
 C        -3.335840         0.447089        -1.624936
 O        -3.338742         1.788550        -1.206088
 C        -2.893652         2.663712        -2.117000
 O        -2.598088         2.584622        -3.290452
 H         1.945856        -0.400040         0.361967
 H         1.848761         1.207005         0.357286
 H         1.112566         0.327028         1.837699
 H        -2.995335         0.115638         0.457093
 H        -3.909940        -2.148889        -0.350711
 H        -2.965029        -1.999561        -1.780312
 H        -2.345854        -2.498517        -0.002177
 H        -2.851302         0.319772        -2.582996
 H        -4.387568         0.131367        -1.846789
 H        -3.025597         3.684072        -1.748242
