19
Iteration:  3049
 C         1.360268        -0.191365         1.096191
 C         0.105536        -0.308794         0.366623
 C        -1.025718        -0.238386        -0.066686
 C        -2.447771        -0.230064        -0.501660
 C        -2.789461        -1.691235        -0.873283
 C        -2.921667         0.714683        -1.682426
 O        -2.970545         2.049747        -1.291437
 C        -3.417905         2.882958        -2.342690
 O        -3.472795         2.591622        -3.525811
 H         1.782237        -1.121653         1.612074
 H         2.049472         0.380413         0.535093
 H         0.902288         0.486249         1.949524
 H        -3.094898         0.198401         0.286319
 H        -3.881283        -1.917277        -1.003778
 H        -2.183465        -2.053855        -1.768524
 H        -2.365352        -2.158128         0.083475
 H        -2.091542         0.711169        -2.381238
 H        -3.935100         0.392861        -1.982327
 H        -3.670319         3.806052        -1.853835
