19
Iteration:   145charge 0 multiplicity 1
 C         0.995460         0.606993        -0.965197
 C        -0.190497         0.075942        -0.293708
 C        -1.401778         0.127871        -0.293383
 C        -2.786928         0.006948         0.034130
 C        -3.251274        -1.399703         0.211039
 C        -3.658094         0.431929        -1.115838
 O        -3.376264         1.822244        -1.381390
 C        -2.453583         2.296636        -2.133989
 O        -1.639501         1.745686        -2.862498
 H         0.658755         0.717090        -2.107080
 H         1.220532         1.664702        -0.691184
 H         1.978320         0.174036        -0.911034
 H        -2.985929         0.550352         0.969791
 H        -3.178465        -1.673677         1.271799
 H        -4.282972        -1.579076        -0.129950
 H        -2.651797        -2.121266        -0.384448
 H        -3.406600        -0.117945        -2.005057
 H        -4.780358         0.374808        -0.980637
 H        -2.535243         3.369903        -2.066815
