19
Iteration:   187
 C         1.028677         0.585581        -1.000266
 C        -0.330743         0.341533        -0.579429
 C        -1.382689         0.042529         0.026275
 C        -2.911729        -0.148002         0.051447
 C        -3.248819        -1.667361         0.366365
 C        -3.554487         0.519603        -1.260835
 O        -3.382085         1.953510        -1.397409
 C        -2.372225         2.429482        -2.188925
 O        -1.672309         1.742493        -2.883207
 H         1.396777        -0.158213        -1.907605
 H         1.223210         1.591463        -1.131528
 H         1.718703         0.218327        -0.317188
 H        -3.362298         0.466294         0.943624
 H        -2.556664        -1.902451         1.150781
 H        -4.225373        -1.744226         0.795557
 H        -3.180837        -2.430861        -0.398686
 H        -3.115855        -0.027550        -2.049622
 H        -4.629936         0.319536        -1.253208
 H        -2.316594         3.509027        -1.945045
