19
Iteration:   115charge 0 multiplicity 1
 C         1.158389         0.586844        -0.903661
 C        -0.227480         0.324263        -0.512153
 C        -1.334028         0.016780        -0.099568
 C        -2.822676        -0.103235        -0.007745
 C        -3.303996        -1.615926         0.322044
 C        -3.590423         0.583243        -1.238136
 O        -3.435179         2.028709        -1.385103
 C        -2.528514         2.313639        -2.224037
 O        -1.735027         1.641512        -2.822335
 H         1.177879         0.992021        -1.785323
 H         1.788214         1.258626        -0.122076
 H         1.787985        -0.387416        -1.188484
 H        -3.076493         0.447564         0.864408
 H        -3.104430        -1.791225         1.416602
 H        -4.352363        -1.963307         0.082245
 H        -2.611337        -2.327700        -0.197606
 H        -3.192416         0.147180        -2.215233
 H        -4.686443         0.384667        -1.090526
 H        -2.410238         3.463476        -2.110412
