19
Iteration:  4664
 C         1.490501        -0.829233         1.087428
 C         0.272947        -0.487405         0.432349
 C        -0.876586        -0.088707         0.068134
 C        -2.259620         0.183167        -0.360420
 C        -3.061590        -1.281755        -0.598607
 C        -2.311194         1.303323        -1.380292
 O        -3.337627         1.157657        -2.355278
 C        -3.944519         2.285788        -2.925382
 O        -3.478509         3.363480        -2.717995
 H         1.374760        -0.446207         2.160532
 H         1.915203        -1.759572         0.762741
 H         2.205238        -0.196415         0.625352
 H        -2.982111         0.596763         0.465683
 H        -3.851666        -1.271140        -1.354689
 H        -2.287415        -2.108039        -0.854975
 H        -3.571083        -1.473290         0.382427
 H        -2.588276         2.254344        -0.738060
 H        -1.439518         1.312476        -2.031622
 H        -4.667963         1.967583        -3.774885
