19
Iteration:  3888
 C         1.421528        -0.675981         0.374965
 C         0.030135        -0.392851         0.599881
 C        -1.158830        -0.231919         0.425395
 C        -2.358008         0.185504        -0.251369
 C        -2.784884        -0.990142        -1.223070
 C        -2.245893         1.562644        -0.866913
 O        -3.645498         1.988865        -1.342003
 C        -3.866912         2.091091        -2.665222
 O        -3.011353         2.054759        -3.554894
 H         1.764322        -0.193328        -0.562563
 H         1.971084        -0.250990         1.302004
 H         1.431847        -1.742988         0.321630
 H        -3.178542         0.331693         0.449092
 H        -3.163733        -0.384137        -2.103433
 H        -2.030324        -1.527475        -1.830336
 H        -3.553663        -1.644768        -0.704387
 H        -1.944484         2.420148        -0.146755
 H        -1.576041         1.538644        -1.807761
 H        -4.890933         2.390319        -2.914222
