19
Iteration:  1066
 C         1.207475         0.329512         0.926596
 C        -0.120432         0.292693         0.146450
 C        -1.264145         0.215545        -0.233837
 C        -2.657066        -0.181702        -0.735408
 C        -3.143401        -1.603684        -0.479920
 C        -2.776598         0.143172        -2.192294
 O        -2.294273         1.425340        -2.695364
 C        -2.846983         2.490961        -2.214489
 O        -3.763174         2.668362        -1.432027
 H         1.225944         0.086203         1.945076
 H         1.919535        -0.404809         0.504264
 H         1.538839         1.344787         0.808389
 H        -3.451884         0.470317        -0.298487
 H        -3.942950        -1.617436         0.265896
 H        -3.605775        -1.899191        -1.427672
 H        -2.363187        -2.196185         0.026718
 H        -2.145490        -0.635273        -2.724347
 H        -3.833468        -0.119278        -2.540404
 H        -2.420725         3.466828        -2.750725
