19
Iteration:  1409charge 0 multiplicity 1
 C         1.158947         0.349771         1.214878
 C        -0.102402         0.217442         0.196509
 C        -1.222943         0.087035        -0.190310
 C        -2.567304        -0.138978        -0.865083
 C        -3.144335        -1.550008        -0.577319
 C        -2.660163         0.156232        -2.378309
 O        -2.346806         1.476707        -2.807389
 C        -2.858975         2.596898        -2.115529
 O        -3.871811         2.577005        -1.401616
 H         1.026140        -0.345042         1.993177
 H         1.972160         0.072289         0.598091
 H         1.245754         1.514651         1.425331
 H        -3.146303         0.608652        -0.276230
 H        -2.618840        -1.975121         0.272851
 H        -4.122260        -1.653731        -0.097198
 H        -3.190493        -2.280855        -1.381406
 H        -2.042772        -0.537217        -2.995400
 H        -3.756700        -0.065731        -2.615109
 H        -2.318127         3.412797        -2.627108
