19
Iteration:  3040
 C         1.333899        -0.176999         1.123142
 C         0.055696        -0.336382         0.368464
 C        -1.028157        -0.261779        -0.112645
 C        -2.397452        -0.217330        -0.498857
 C        -2.808993        -1.670708        -0.894674
 C        -2.805578         0.718315        -1.592040
 O        -2.983976         2.168101        -1.273449
 C        -3.507717         2.814467        -2.351123
 O        -3.434548         2.575529        -3.544933
 H         1.880058        -1.121805         1.319508
 H         1.928394         0.358757         0.449316
 H         1.054848         0.438099         2.042299
 H        -2.999173         0.018730         0.390505
 H        -3.890700        -1.923455        -0.864702
 H        -2.342573        -2.157968        -1.823223
 H        -2.392060        -2.380973        -0.111627
 H        -2.290212         0.606951        -2.533326
 H        -3.797906         0.242295        -1.909193
 H        -3.775339         3.833197        -2.015271
