19
Iteration:  2259charge 0 multiplicity 1
 C         0.832068         1.093127        -0.016086
 C        -0.358571         0.267899        -0.215139
 C        -1.460171        -0.214960        -0.093298
 C        -2.878452        -0.588175        -0.348472
 C        -3.221598        -2.090519        -0.533362
 C        -3.327002         0.362541        -1.515354
 O        -3.229986         1.813182        -1.176355
 C        -2.437469         2.583212        -1.996959
 O        -1.743575         2.398865        -2.984113
 H         1.172683         1.150851         1.139070
 H         1.844904         0.539360        -0.399493
 H         0.667052         2.031371        -0.544490
 H        -3.368205        -0.357304         0.625749
 H        -4.047171        -2.416226         0.131694
 H        -3.725003        -2.177185        -1.545966
 H        -2.296676        -2.729532        -0.342576
 H        -2.699402         0.085792        -2.397694
 H        -4.401820         0.154633        -1.780773
 H        -2.534821         3.593191        -1.317142
