19
Iteration:  2138charge 0 multiplicity 1
 C         1.036788         0.823323        -0.070078
 C        -0.383529         0.418233        -0.219195
 C        -1.570501         0.249721        -0.217979
 C        -2.849868        -0.382371        -0.348464
 C        -2.768704        -1.889137        -0.825028
 C        -3.748629         0.439670        -1.410961
 O        -3.463441         1.879494        -1.239654
 C        -2.458725         2.435316        -1.896762
 O        -1.690846         1.819745        -2.602596
 H         1.716609        -0.008765        -0.416822
 H         1.353978         1.770039        -0.666341
 H         1.185085         1.288024         0.842709
 H        -3.320718        -0.315151         0.628936
 H        -2.637338        -1.888131        -1.943768
 H        -1.855783        -2.417010        -0.436745
 H        -3.619234        -2.439556        -0.356490
 H        -3.331366         0.058623        -2.406354
 H        -4.837453         0.349466        -1.381742
 H        -2.460754         3.495046        -2.131299
