19
Iteration:  4094charge 0 multiplicity 1
 C         1.528878        -0.849072         0.942327
 C         0.121943        -0.570980         0.695417
 C        -0.937738        -0.206092         0.237516
 C        -2.298529         0.258071        -0.406134
 C        -2.830411        -0.920859        -1.370595
 C        -2.134760         1.656248        -1.107381
 O        -3.535612         2.102069        -1.394930
 C        -4.049560         2.135527        -2.587674
 O        -3.452518         2.000409        -3.629250
 H         1.919334        -1.808539         1.594285
 H         2.038143        -0.916462        -0.015202
 H         1.908690        -0.134973         1.682191
 H        -3.026730         0.392546         0.464401
 H        -2.144386        -1.717235        -0.955106
 H        -3.865991        -1.144030        -1.143578
 H        -2.647949        -0.560088        -2.416528
 H        -1.543535         2.439403        -0.706744
 H        -1.734240         1.468139        -2.158828
 H        -5.137130         2.526324        -2.438109
