19
Iteration:  1283
 C         0.944708         0.800367         0.531437
 C        -0.315915         0.336105         0.121407
 C        -1.505876         0.058224        -0.111266
 C        -2.782203        -0.366236        -0.744488
 C        -3.130235        -1.844459        -0.724201
 C        -2.877194         0.073909        -2.216731
 O        -2.036558         1.279983        -2.373261
 C        -2.501661         2.589501        -1.946857
 O        -3.585024         2.787598        -1.410285
 H         1.901799         0.578116        -0.075432
 H         0.817534         1.932811         0.680785
 H         1.210772         0.547295         1.545498
 H        -3.532795         0.266023        -0.290222
 H        -3.399855        -2.168924        -1.718649
 H        -2.285848        -2.481239        -0.505949
 H        -4.080951        -1.930049        -0.149662
 H        -2.426753        -0.607316        -2.947527
 H        -3.942187         0.169347        -2.444759
 H        -1.500434         3.070294        -2.075615
