19
Iteration:   179
 C         1.072826         0.592615        -0.998056
 C        -0.308953         0.256162        -0.526027
 C        -1.384405         0.035210         0.004802
 C        -2.899493        -0.163936         0.075286
 C        -3.241567        -1.578114         0.327473
 C        -3.629329         0.467405        -1.200770
 O        -3.396579         1.968768        -1.463161
 C        -2.374600         2.387444        -2.122005
 O        -1.653914         1.765790        -2.899373
 H         1.104768         0.194525        -2.111854
 H         0.999841         1.723918        -1.176151
 H         1.882666         0.152050        -0.329584
 H        -3.223731         0.269555         1.007626
 H        -2.596934        -1.770177         1.231279
 H        -4.302089        -1.644034         0.673459
 H        -2.913478        -2.293412        -0.467922
 H        -3.111573        -0.048253        -2.045502
 H        -4.756535         0.455984        -1.285937
 H        -2.271116         3.459209        -2.048617
