19
Iteration:  1380
 C         0.968865         0.457545         0.980866
 C        -0.246490         0.180461         0.232345
 C        -1.255325         0.059923        -0.337470
 C        -2.609054        -0.113031        -0.767303
 C        -3.083783        -1.573903        -0.612406
 C        -2.711944         0.209253        -2.257359
 O        -2.245981         1.432255        -2.693741
 C        -2.845703         2.549181        -2.162055
 O        -3.694300         2.530681        -1.327958
 H         1.407819        -0.348733         1.674742
 H         1.837216         0.778895         0.336709
 H         0.855737         1.408866         1.526591
 H        -3.211356         0.543673        -0.090163
 H        -3.456796        -1.723678         0.425946
 H        -4.042149        -1.676154        -1.253667
 H        -2.223664        -2.332448        -0.802224
 H        -2.047440        -0.504021        -2.750270
 H        -3.707397         0.030530        -2.612501
 H        -2.178863         3.406508        -2.650176
