19
Iteration:  3109charge 0 multiplicity 1
 C         1.197305        -0.179388         0.930555
 C        -0.121556         0.210716         0.483566
 C        -1.191526        -0.038889        -0.077885
 C        -2.580665        -0.339893        -0.593821
 C        -2.702962        -1.906187        -0.723390
 C        -2.856231         0.417939        -1.839263
 O        -2.775734         1.846272        -1.396234
 C        -3.102215         2.961876        -2.214837
 O        -3.587415         2.790412        -3.308380
 H         1.305684        -0.981228         1.601476
 H         1.885268        -0.488102         0.039608
 H         1.796239         0.611966         1.338070
 H        -3.249082         0.007736         0.194136
 H        -3.633009        -2.226670        -1.226255
 H        -1.847049        -2.264265        -1.277474
 H        -2.624052        -2.394619         0.239961
 H        -2.266787         0.172568        -2.758609
 H        -3.856039         0.190222        -2.263832
 H        -2.636987         3.926275        -1.827068
