19
Iteration:  4265
 C         1.442543        -0.863180         1.276840
 C         0.245423        -0.580469         0.570106
 C        -0.860022        -0.208902         0.132832
 C        -2.214412         0.148705        -0.440871
 C        -2.775032        -0.959825        -1.370022
 C        -2.157106         1.490253        -1.187753
 O        -3.537154         2.001982        -1.406782
 C        -4.153074         2.213886        -2.642659
 O        -3.507370         2.329973        -3.639747
 H         1.901149         0.002836         1.746806
 H         1.145849        -1.654927         2.037562
 H         2.299271        -1.370810         0.593291
 H        -2.919951         0.285839         0.385443
 H        -3.555820        -0.510505        -2.053606
 H        -1.804312        -1.172158        -1.814442
 H        -3.304760        -1.738559        -0.770989
 H        -1.726527         2.292680        -0.427572
 H        -1.682892         1.527097        -2.179167
 H        -5.221819         2.367518        -2.481213
