19
Iteration:  3439
 C         1.292474        -0.182253         1.087573
 C        -0.140960        -0.098083         0.682395
 C        -1.183450        -0.099596         0.098683
 C        -2.555013        -0.220219        -0.486633
 C        -2.716217        -1.625295        -1.067363
 C        -2.826523         0.536550        -1.722439
 O        -2.484696         1.918606        -1.630658
 C        -3.101465         2.860810        -2.400946
 O        -3.960483         2.630283        -3.204823
 H         1.905879        -0.507762         0.276562
 H         1.606831         0.758164         1.639541
 H         1.207946        -0.903864         1.876692
 H        -3.286246        -0.109794         0.327558
 H        -3.762372        -1.935446        -1.363915
 H        -2.116274        -1.804065        -2.006156
 H        -2.238576        -2.403949        -0.446384
 H        -2.149539         0.063361        -2.515592
 H        -3.782879         0.416879        -2.204211
 H        -2.718246         3.828938        -2.143931
