19
Iteration:  2636charge 0 multiplicity 1
 C         1.072225         0.551818         0.153436
 C        -0.289561         0.089391         0.405404
 C        -1.489645        -0.226506         0.279275
 C        -2.793801        -0.488933        -0.428261
 C        -3.025717        -1.932514        -0.813655
 C        -2.706790         0.393561        -1.662680
 O        -2.785428         1.733444        -1.172236
 C        -2.906234         2.765143        -2.083229
 O        -2.885205         2.756533        -3.292848
 H         1.746313         0.017519         0.878209
 H         1.660502         0.196319        -0.799669
 H         1.286456         1.612004         0.288847
 H        -3.774580        -0.213147         0.025670
 H        -3.756317        -2.168064        -1.595938
 H        -2.049963        -2.441893        -1.174001
 H        -3.392083        -2.447574         0.133149
 H        -1.849189         0.185674        -2.354349
 H        -3.605589         0.107990        -2.242277
 H        -3.069479         3.726511        -1.535786
