19
Iteration:  4963charge 0 multiplicity 1
 C         1.188059         0.200391         1.108163
 C         0.022894        -0.137260         0.337533
 C        -1.096343        -0.400521        -0.141309
 C        -2.349901        -0.065714        -0.745894
 C        -3.435002        -1.220577        -0.754530
 C        -2.032067         0.585526        -2.111685
 O        -3.397572         1.082187        -2.652224
 C        -3.601971         2.339887        -2.276712
 O        -2.891698         3.139166        -1.622737
 H         1.986415        -0.368166         0.702167
 H         1.476171         1.324705         0.955150
 H         1.111730        -0.011539         2.182816
 H        -2.663859         0.767561        -0.087693
 H        -4.407481        -0.854545        -0.535713
 H        -3.497411        -1.818663        -1.675550
 H        -3.304059        -1.914784         0.087545
 H        -1.349686         1.332911        -2.174099
 H        -1.769843        -0.104830        -2.893991
 H        -4.518249         2.701978        -2.774461
