19
Iteration:  2792
 C         1.082519         0.246143         1.122030
 C         0.051887        -0.133822         0.187921
 C        -1.063273        -0.230795        -0.296845
 C        -2.486452        -0.360807        -0.492306
 C        -2.945270        -1.751892        -0.967341
 C        -3.254491         0.616722        -1.462446
 O        -2.692906         1.967229        -1.298516
 C        -2.827114         2.830929        -2.342819
 O        -3.461468         2.467723        -3.313136
 H         1.200479         1.325711         1.237395
 H         1.249515        -0.426675         2.041443
 H         1.954326         0.100787         0.521169
 H        -2.995748        -0.315518         0.495367
 H        -4.019154        -2.014968        -1.107660
 H        -2.509941        -2.137571        -1.939197
 H        -2.594156        -2.635199        -0.390116
 H        -3.069147         0.362981        -2.471470
 H        -4.304678         0.603991        -1.036416
 H        -2.346247         3.816430        -2.183548
