19
Iteration:  1511
 C         1.220740         0.022980         1.131360
 C         0.008683         0.112969         0.321815
 C        -1.149615         0.050228        -0.097464
 C        -2.515589        -0.038152        -0.630471
 C        -2.985427        -1.438332        -0.555176
 C        -2.545155         0.244526        -2.124520
 O        -2.203577         1.701619        -2.540592
 C        -3.123238         2.644327        -2.295798
 O        -4.302261         2.469421        -2.010368
 H         1.294952         0.866685         1.894324
 H         1.268292        -1.033096         1.469944
 H         1.979790         0.112719         0.376480
 H        -3.193199         0.702850        -0.106904
 H        -3.776231        -1.478573        -1.363964
 H        -2.267196        -2.284689        -0.695170
 H        -3.525586        -1.834210         0.369010
 H        -1.739566        -0.312327        -2.619581
 H        -3.489801        -0.004368        -2.569773
 H        -2.608826         3.581412        -2.569282
