19
Iteration:  4445
 C         1.469092        -0.251729         1.214878
 C         0.217289        -0.256195         0.333813
 C        -0.960066        -0.466485        -0.009660
 C        -2.340259        -0.188782        -0.425206
 C        -3.169531        -1.170382        -1.264742
 C        -2.229394         1.103447        -1.339277
 O        -3.613458         1.681413        -1.414652
 C        -3.886838         2.421154        -2.482970
 O        -3.051583         2.649778        -3.352434
 H         2.299830        -0.866249         0.670621
 H         1.826497         0.755114         1.400306
 H         1.389943        -0.722313         2.204940
 H        -2.899792         0.079340         0.456670
 H        -3.675583        -0.585357        -2.069663
 H        -2.588083        -1.950785        -1.891394
 H        -3.879302        -1.807935        -0.720850
 H        -1.542852         1.883411        -1.033236
 H        -1.864199         0.989443        -2.348115
 H        -4.859524         2.855590        -2.355355
