19
Iteration:  4665
 C         1.498680        -0.823301         1.098757
 C         0.274674        -0.481316         0.426310
 C        -0.874200        -0.095780         0.060248
 C        -2.275281         0.178374        -0.368256
 C        -3.066678        -1.268560        -0.598508
 C        -2.304945         1.304181        -1.381427
 O        -3.329431         1.155374        -2.354983
 C        -3.945944         2.288516        -2.925514
 O        -3.480774         3.361252        -2.712334
 H         1.407380        -0.440132         2.177147
 H         1.916831        -1.798797         0.778196
 H         2.190863        -0.206249         0.618732
 H        -2.971709         0.591587         0.480233
 H        -3.875781        -1.300580        -1.397809
 H        -2.317292        -2.106402        -0.831669
 H        -3.583812        -1.480162         0.389570
 H        -2.573818         2.230781        -0.757758
 H        -1.452740         1.298354        -2.028590
 H        -4.683609         1.957902        -3.741856
