19
Iteration:  4744
 C         1.500284        -0.508513         1.047103
 C         0.065264        -0.488102         0.603129
 C        -1.012400        -0.127959         0.211741
 C        -2.273853         0.111103        -0.530776
 C        -3.164928        -1.038082        -0.669514
 C        -1.963237         0.869144        -1.773655
 O        -3.295271         1.097132        -2.565533
 C        -3.872665         2.292029        -2.663124
 O        -3.521018         3.386630        -2.334610
 H         1.823021         0.408315         1.494651
 H         1.664446        -1.293525         1.831476
 H         2.079888        -0.676505         0.186322
 H        -2.883224         0.806849         0.138230
 H        -4.126785        -0.795081        -1.239668
 H        -2.802075        -1.841148        -1.292421
 H        -3.400985        -1.566620         0.269082
 H        -1.455672         1.765010        -1.668067
 H        -1.515605         0.310965        -2.569443
 H        -4.898363         2.060254        -3.084381
