19
Iteration:  2017
 C         1.090731         0.725594         0.186245
 C        -0.280188         0.238464        -0.033466
 C        -1.408356        -0.129443        -0.210101
 C        -2.755716        -0.448719        -0.354712
 C        -2.980756        -2.028859        -0.411220
 C        -3.256596         0.395998        -1.475085
 O        -3.251446         1.836141        -1.181145
 C        -2.743421         2.647320        -2.157305
 O        -2.226192         2.419059        -3.221247
 H         1.462488         1.539222        -0.482672
 H         1.270624         0.962256         1.274615
 H         1.778210        -0.048083         0.161920
 H        -3.313579        -0.095655         0.494806
 H        -2.288082        -2.406520         0.386762
 H        -4.039178        -2.252194        -0.170202
 H        -2.725273        -2.582903        -1.354909
 H        -2.676898         0.310426        -2.413691
 H        -4.302152         0.178996        -1.676541
 H        -2.712553         3.736597        -1.945828
