19
Iteration:  1399charge 0 multiplicity 1
 C         1.051990         0.424754         1.089774
 C        -0.072664         0.178959         0.197238
 C        -1.250353         0.073281        -0.202850
 C        -2.603982        -0.116842        -0.806081
 C        -3.138231        -1.544732        -0.586072
 C        -2.688915         0.101203        -2.341081
 O        -2.307605         1.461542        -2.808554
 C        -2.841831         2.598931        -2.095473
 O        -3.803376         2.568207        -1.370462
 H         1.084179        -0.351899         1.834556
 H         2.021225         0.317205         0.661953
 H         1.156230         1.385377         1.717207
 H        -3.349590         0.606296        -0.385189
 H        -2.739472        -1.907783         0.358210
 H        -4.248112        -1.526180        -0.663700
 H        -2.634875        -2.144595        -1.353562
 H        -2.061330        -0.614093        -2.903952
 H        -3.754903        -0.046275        -2.619449
 H        -2.383928         3.446818        -2.474964
