19
Iteration:  2358charge 0 multiplicity 1
 C         1.082813         0.682319         0.274417
 C        -0.256619         0.225590        -0.043358
 C        -1.395773        -0.092658        -0.107261
 C        -2.807247        -0.421263        -0.385466
 C        -3.079341        -1.823299        -0.589518
 C        -3.242059         0.345309        -1.584928
 O        -3.319730         1.722950        -1.256162
 C        -2.722125         2.588061        -2.080512
 O        -2.060882         2.445774        -3.074666
 H         1.268284         1.749288         0.395024
 H         1.212208         0.138889         1.252048
 H         1.757831         0.497414        -0.458937
 H        -3.359817         0.014108         0.480384
 H        -2.320889        -2.421955        -0.139190
 H        -4.066405        -2.059389        -0.201483
 H        -2.942378        -2.142905        -1.649465
 H        -2.616314         0.182012        -2.433888
 H        -4.261452        -0.016838        -1.938466
 H        -2.732209         3.538432        -1.441065
