19
Iteration:  4315
 C         1.394655        -0.687953         1.118537
 C         0.030363        -0.283626         0.606818
 C        -1.062700        -0.159252         0.104078
 C        -2.403491        -0.015269        -0.583507
 C        -2.657796        -1.323643        -1.372099
 C        -2.251990         1.322546        -1.321733
 O        -3.502438         2.009496        -1.296114
 C        -3.853324         2.622142        -2.471983
 O        -3.334503         2.181346        -3.482697
 H         2.097529         0.209520         0.921647
 H         1.647635        -0.946335         2.182319
 H         1.723113        -1.493744         0.528679
 H        -3.210996        -0.013326         0.172331
 H        -3.667823        -1.503966        -1.144805
 H        -2.275338        -1.116443        -2.421010
 H        -2.131228        -2.120777        -0.874812
 H        -1.563518         1.983198        -0.818128
 H        -2.062584         1.182863        -2.354683
 H        -4.758292         3.293915        -2.326352
