19
Iteration:  2697charge 0 multiplicity 1
 C         1.080794         0.445908         0.405188
 C        -0.346698         0.041664         0.322495
 C        -1.493002        -0.179545         0.133477
 C        -2.826264        -0.497412        -0.431795
 C        -2.829154        -1.943812        -0.858837
 C        -2.988913         0.495268        -1.660505
 O        -2.531663         1.794932        -1.251718
 C        -2.749393         2.835961        -2.107335
 O        -3.140463         2.626370        -3.246109
 H         1.144781         0.864837         1.443926
 H         1.704321        -0.344142         0.088424
 H         1.151038         1.480353        -0.179238
 H        -3.555229        -0.321667         0.377129
 H        -3.907213        -2.314022        -0.991085
 H        -2.262415        -2.157689        -1.769417
 H        -2.343898        -2.605183        -0.123231
 H        -2.328786         0.191983        -2.521988
 H        -4.021691         0.618536        -1.949391
 H        -2.204935         3.703454        -1.664294
