19
Iteration:  1601
 C         1.341200        -0.004040         0.824104
 C         0.033473        -0.135654         0.349723
 C        -1.172472        -0.002018         0.187010
 C        -2.462261         0.044931        -0.517979
 C        -3.135060        -1.460714        -0.613281
 C        -2.384223         0.425658        -1.962565
 O        -2.231812         1.883356        -2.030431
 C        -3.242994         2.654816        -2.306816
 O        -4.338082         2.287087        -2.695169
 H         1.985085         0.844735         0.470327
 H         1.225450         0.144151         1.947297
 H         1.957271        -0.871291         0.824090
 H        -3.201907         0.681452         0.018658
 H        -3.055278        -2.086976         0.337687
 H        -4.213728        -1.324155        -0.565590
 H        -2.801538        -2.062222        -1.483541
 H        -1.542433         0.049657        -2.491300
 H        -3.308598         0.148496        -2.455971
 H        -2.886420         3.702491        -2.152185
