19
Iteration:  1355
 C         1.030109         0.573004         0.839239
 C        -0.289865         0.230009         0.344400
 C        -1.325863         0.022816        -0.286348
 C        -2.678642        -0.220639        -0.828180
 C        -3.128450        -1.732103        -0.544916
 C        -2.872083         0.163817        -2.339198
 O        -2.070748         1.520135        -2.638946
 C        -2.787674         2.560082        -2.190776
 O        -3.624793         2.561141        -1.285940
 H         1.674492        -0.228671         1.200972
 H         1.639249         1.207421         0.244473
 H         0.900817         1.277924         1.784221
 H        -3.307893         0.501511        -0.228160
 H        -3.991397        -1.821787         0.160979
 H        -3.460587        -2.176751        -1.547765
 H        -2.259742        -2.218806        -0.074860
 H        -2.399515        -0.523548        -3.062453
 H        -3.936573         0.351386        -2.596158
 H        -2.304743         3.391168        -2.631144
