19
Iteration:   725charge 0 multiplicity 1
 C         1.527789        -0.327169         0.578547
 C         0.056332         0.017672         0.411579
 C        -1.070433         0.067949         0.015096
 C        -2.429512        -0.074139        -0.472923
 C        -3.010012        -1.392962        -0.068634
 C        -2.807748         0.495426        -1.831233
 O        -2.425201         1.855620        -1.859572
 C        -3.163452         2.654072        -2.554792
 O        -4.251081         2.406837        -2.993664
 H         1.493677        -0.635309         1.531847
 H         2.005134        -1.022554        -0.115578
 H         2.274954         0.646559         0.591695
 H        -2.988804         0.661207         0.243516
 H        -2.413646        -1.783871         0.757834
 H        -4.078909        -1.266879         0.331189
 H        -2.997719        -2.186569        -0.838072
 H        -2.332095         0.033711        -2.757557
 H        -3.918027         0.537083        -1.957835
 H        -2.691020         3.761053        -2.711031
