19
Iteration:   620
 C         1.474698        -0.088871         0.439879
 C         0.052986        -0.051519         0.363072
 C        -0.988893        -0.178505        -0.243764
 C        -2.449407        -0.080203        -0.282880
 C        -3.117627        -1.512113        -0.022178
 C        -2.912515         0.633779        -1.523327
 O        -2.479754         1.944890        -1.614810
 C        -3.101187         2.706383        -2.608885
 O        -4.021440         2.311202        -3.278259
 H         1.937722        -1.136553        -0.075030
 H         2.107901         0.710114        -0.037389
 H         1.545396        -0.285743         1.441136
 H        -2.849868         0.554762         0.524514
 H        -3.094542        -1.608019         1.058036
 H        -4.132745        -1.368616        -0.411956
 H        -2.701192        -2.320652        -0.604282
 H        -2.780007         0.068899        -2.432973
 H        -4.015694         0.690376        -1.437798
 H        -2.715920         3.682697        -2.843557
