19
Iteration:  1503charge 0 multiplicity 1
 C         1.216975         0.055728         1.111791
 C        -0.029643         0.062014         0.281595
 C        -1.161583         0.110509        -0.095577
 C        -2.495007         0.009303        -0.585919
 C        -3.002740        -1.526285        -0.547929
 C        -2.570709         0.282988        -2.150856
 O        -2.193644         1.679434        -2.615791
 C        -3.105068         2.637537        -2.296074
 O        -4.280023         2.471221        -1.950360
 H         1.177901         0.689729         2.064433
 H         1.321392        -0.981638         1.610848
 H         2.184574         0.267237         0.673598
 H        -3.117322         0.663306         0.014629
 H        -3.568409        -1.739163        -1.530020
 H        -2.221568        -2.313289        -0.625146
 H        -3.734911        -1.632877         0.285666
 H        -1.748973        -0.245040        -2.617116
 H        -3.522763        -0.028764        -2.559067
 H        -2.644733         3.564283        -2.501756
