19
Iteration:  2609
 C         1.084572         0.564814         0.295030
 C        -0.224027         0.058627         0.320411
 C        -1.323365        -0.280108         0.068339
 C        -2.708110        -0.470767        -0.371948
 C        -3.078282        -1.949550        -0.736188
 C        -2.844760         0.432094        -1.736378
 O        -2.893474         1.791686        -1.194807
 C        -3.021746         2.822960        -2.080009
 O        -2.736343         2.660543        -3.243412
 H         1.838692        -0.139042         0.691790
 H         1.522855         0.512024        -0.683331
 H         1.432139         1.434248         0.902982
 H        -3.536262        -0.122458         0.229601
 H        -3.719794        -1.935501        -1.640165
 H        -2.152962        -2.379811        -1.008952
 H        -3.620792        -2.365150         0.107657
 H        -2.044671         0.171847        -2.420102
 H        -3.780933         0.061752        -2.173905
 H        -3.673719         3.625500        -1.723368
