19
Iteration:   837charge 0 multiplicity 1
 C         1.466081        -0.101384         0.583128
 C         0.028048         0.009246         0.486667
 C        -1.069183        -0.159603        -0.058273
 C        -2.416820        -0.043019        -0.452798
 C        -3.326172        -1.311817        -0.313580
 C        -2.538270         0.480043        -1.875815
 O        -2.164209         1.862972        -2.074558
 C        -3.192493         2.633179        -2.611990
 O        -4.375795         2.313785        -2.493043
 H         2.072111         0.712601         0.418969
 H         1.611666        -0.318865         1.659530
 H         1.974704        -0.871984        -0.064574
 H        -2.762314         0.798843         0.239861
 H        -3.350475        -1.456213         0.787077
 H        -4.377863        -1.175658        -0.620556
 H        -2.775921        -2.215358        -0.630422
 H        -2.017607        -0.244249        -2.559315
 H        -3.656300         0.438469        -2.093545
 H        -2.719124         3.653151        -2.778245
