19
Iteration:  3019charge 0 multiplicity 1
 C         1.418011        -0.180586         1.089644
 C         0.076721        -0.321490         0.528234
 C        -0.955663        -0.241074        -0.160305
 C        -2.388948        -0.311005        -0.413664
 C        -2.920360        -1.645768        -0.949273
 C        -2.823114         0.775284        -1.652901
 O        -3.044832         2.191160        -1.287317
 C        -3.510645         2.908255        -2.384534
 O        -3.399206         2.441532        -3.492576
 H         1.964864        -1.111959         0.973877
 H         1.921088         0.590836         0.545813
 H         1.110907         0.030737         2.082617
 H        -2.939299         0.121823         0.395912
 H        -4.007137        -1.749728        -0.838119
 H        -2.610612        -1.833872        -2.019724
 H        -2.485085        -2.535655        -0.444327
 H        -1.937390         0.799732        -2.248749
 H        -3.671836         0.294711        -2.285699
 H        -4.212272         3.709339        -2.006211
