19
Iteration:   686charge 0 multiplicity 1
 C         1.500872        -0.190919         0.621668
 C         0.150274        -0.192485         0.136150
 C        -1.049982        -0.090282        -0.040280
 C        -2.456944        -0.007736        -0.120715
 C        -2.994712        -1.442279        -0.153237
 C        -2.843359         0.599593        -1.551311
 O        -2.380484         1.894883        -1.883436
 C        -3.210816         2.719475        -2.659528
 O        -4.277209         2.425252        -3.171390
 H         1.640418        -1.086282         1.461481
 H         2.459093        -0.210467         0.003939
 H         1.515650         0.669530         1.211849
 H        -2.898894         0.453395         0.736252
 H        -2.756699        -1.916592         0.816385
 H        -4.083248        -1.330461        -0.172487
 H        -2.908216        -2.064992        -1.033134
 H        -2.327085        -0.100209        -2.182784
 H        -3.912403         0.407363        -1.701012
 H        -2.579210         3.549605        -2.712823
