19
Iteration:  4295
 C         1.335804        -0.729013         1.110638
 C         0.105762        -0.437101         0.608919
 C        -0.957763        -0.162721         0.078178
 C        -2.254403         0.046148        -0.535712
 C        -2.680315        -1.214582        -1.317527
 C        -2.212697         1.394244        -1.272733
 O        -3.549293         2.065807        -1.253845
 C        -3.981426         2.434702        -2.543174
 O        -3.380760         2.239971        -3.600494
 H         1.886802         0.153398         1.451626
 H         1.340275        -1.225625         2.152087
 H         1.703013        -1.539794         0.573131
 H        -3.003468         0.195380         0.318728
 H        -3.684648        -1.300629        -1.603610
 H        -2.000576        -1.245947        -2.264157
 H        -2.423350        -2.147798        -0.804622
 H        -1.563909         2.168453        -0.697948
 H        -1.915056         1.299951        -2.297843
 H        -4.960191         3.000295        -2.340980
