19
Iteration:  2826
 C         1.193312         0.053100         1.092093
 C        -0.025097        -0.094557         0.329158
 C        -1.135828        -0.090232        -0.279542
 C        -2.590210        -0.313871        -0.501588
 C        -2.855315        -1.821226        -0.914444
 C        -3.066620         0.632851        -1.567360
 O        -2.606861         2.000313        -1.303256
 C        -3.065202         2.818177        -2.296556
 O        -3.489295         2.469547        -3.383118
 H         1.585251         1.042180         0.903607
 H         1.107007        -0.223331         2.190600
 H         1.795822        -0.644978         0.514090
 H        -3.104492        -0.158277         0.476591
 H        -3.938786        -2.063363        -0.640144
 H        -2.616687        -1.765712        -1.987379
 H        -2.150942        -2.341782        -0.292493
 H        -2.710869         0.356715        -2.544107
 H        -4.143835         0.484861        -1.768079
 H        -2.956773         3.823696        -1.852877
