19
Iteration:  4869
 C         1.282380        -0.131183         1.217826
 C        -0.024811        -0.160361         0.555909
 C        -1.043269         0.134064        -0.146949
 C        -2.330409         0.040954        -0.916369
 C        -3.220545        -1.132899        -0.454214
 C        -2.246148         0.454301        -2.412123
 O        -3.401021         1.171516        -2.868045
 C        -3.649176         2.297654        -2.285395
 O        -2.984664         2.997525        -1.504760
 H         1.998654         0.241622         0.442565
 H         1.301556         0.415564         2.123426
 H         1.566601        -1.237848         1.417817
 H        -2.938966         0.886709        -0.665274
 H        -4.059349        -1.333956        -1.099226
 H        -2.564669        -2.051903        -0.611678
 H        -3.772861        -1.080710         0.499869
 H        -1.329960         1.198775        -2.551000
 H        -1.907536        -0.249521        -3.189455
 H        -4.561466         2.703522        -2.733167
