19
Iteration:   169charge 0 multiplicity 1
 C         1.009733         0.601939        -1.023646
 C        -0.250968         0.158427        -0.430843
 C        -1.433038         0.041479        -0.086872
 C        -2.851324        -0.060548         0.092640
 C        -3.227552        -1.539585         0.316099
 C        -3.630086         0.444450        -1.168454
 O        -3.461310         1.921436        -1.436355
 C        -2.327203         2.372623        -2.143932
 O        -1.623395         1.775158        -2.911734
 H         1.098378         0.381387        -2.074691
 H         1.148994         1.780873        -0.972003
 H         1.979524         0.290437        -0.485782
 H        -3.157796         0.530298         0.918396
 H        -2.801567        -1.976817         1.264122
 H        -4.337168        -1.742449         0.296271
 H        -2.831902        -2.133454        -0.548861
 H        -3.358177        -0.072999        -2.134704
 H        -4.745415         0.320349        -1.000913
 H        -2.296357         3.462219        -1.976278
