19
Iteration:  1703
 C         1.438043        -0.115881         0.857540
 C         0.117331        -0.179177         0.371258
 C        -1.069694        -0.058573         0.117049
 C        -2.455420        -0.035958        -0.373436
 C        -3.007674        -1.558260        -0.505414
 C        -2.607498         0.470024        -1.781973
 O        -2.490389         1.946060        -1.706674
 C        -3.391551         2.776212        -2.406952
 O        -4.131352         2.447063        -3.320869
 H         2.249884        -0.648589         0.385564
 H         1.758027         0.925788         0.865840
 H         1.381345        -0.411434         1.989231
 H        -3.017262         0.546174         0.328271
 H        -3.646649        -1.741109        -1.365146
 H        -2.139312        -2.275789        -0.593109
 H        -3.412075        -2.031467         0.409970
 H        -1.850761         0.021511        -2.485688
 H        -3.638410         0.260742        -2.163537
 H        -3.250547         3.722097        -1.916913
