19
Iteration:  2921charge 0 multiplicity 1
 C         1.418336        -0.222886         0.809505
 C        -0.122693        -0.276698         0.570683
 C        -1.263909        -0.143968         0.268166
 C        -2.508809        -0.222742        -0.564262
 C        -2.748700        -1.770500        -0.656278
 C        -2.542066         0.642089        -1.866910
 O        -2.900746         2.053490        -1.427717
 C        -3.524342         2.833582        -2.295814
 O        -3.471713         2.758418        -3.503267
 H         1.871967        -0.129823        -0.189508
 H         1.673252         0.740253         1.402091
 H         1.564120        -1.163139         1.273297
 H        -3.361629         0.176323         0.030501
 H        -3.390019        -2.173720        -1.394372
 H        -1.738154        -2.176551        -0.748985
 H        -3.171775        -2.103303         0.310513
 H        -1.636558         0.414389        -2.395862
 H        -3.332088         0.277165        -2.630372
 H        -4.239672         3.334336        -1.580845
