19
Iteration:  4251charge 0 multiplicity 1
 C         1.433045        -0.951584         1.299677
 C         0.253679        -0.563902         0.558568
 C        -0.863022        -0.224824         0.154224
 C        -2.092554         0.186476        -0.403884
 C        -2.805954        -0.797078        -1.381018
 C        -2.121752         1.625383        -1.157985
 O        -3.590443         1.856724        -1.395434
 C        -4.109676         2.159905        -2.630012
 O        -3.572447         2.338867        -3.719135
 H         1.739361        -0.111233         1.967967
 H         1.361724        -1.844648         2.022996
 H         2.178015        -1.242152         0.580193
 H        -2.748218         0.386052         0.501273
 H        -3.362699        -0.298346        -2.107278
 H        -2.231163        -1.546258        -2.004436
 H        -3.464783        -1.536070        -0.940899
 H        -1.643351         2.475183        -0.532515
 H        -1.558834         1.512237        -2.071749
 H        -5.232453         2.088189        -2.504091
