19
Iteration:   502
 C         1.476105         0.048919         0.012576
 C         0.031679        -0.061976         0.169828
 C        -1.137083        -0.043303        -0.025255
 C        -2.591873        -0.129648        -0.127107
 C        -3.170815        -1.567718         0.069482
 C        -3.057968         0.557978        -1.395978
 O        -2.800711         1.961289        -1.333707
 C        -2.970135         2.659407        -2.519752
 O        -3.407566         2.239577        -3.558408
 H         1.590161         0.828846        -0.637489
 H         2.001327         0.460070         0.848035
 H         1.855767        -0.876362        -0.544730
 H        -2.988930         0.430208         0.735858
 H        -3.356597        -1.762757         1.150049
 H        -4.135386        -1.665265        -0.460849
 H        -2.479934        -2.318680        -0.363644
 H        -2.491990         0.214658        -2.244018
 H        -4.106658         0.445531        -1.708526
 H        -2.730259         3.694044        -2.346442
