19
Iteration:  2909charge 0 multiplicity 1
 C         1.324408        -0.228862         0.773812
 C        -0.074151        -0.263156         0.619692
 C        -1.233226        -0.091460         0.248200
 C        -2.577079        -0.221971        -0.503914
 C        -2.715683        -1.753843        -0.669932
 C        -2.577380         0.592254        -1.887230
 O        -2.859408         1.928929        -1.393456
 C        -3.471808         2.807967        -2.309195
 O        -3.523394         2.813501        -3.527783
 H         1.974355         0.061472        -0.103146
 H         1.538916         0.508158         1.596295
 H         1.926024        -1.034370         1.187430
 H        -3.418823         0.260582         0.048037
 H        -3.389245        -1.946298        -1.500002
 H        -1.775392        -2.308056        -0.862760
 H        -3.116509        -2.193364         0.293750
 H        -1.619721         0.775733        -2.369783
 H        -3.463148         0.376594        -2.580256
 H        -3.862739         3.773884        -1.863364
