19
Iteration:  4596charge 0 multiplicity 1
 C         1.419678        -0.960664         0.782275
 C         0.106486        -0.213005         0.677255
 C        -1.037809         0.095906         0.463055
 C        -2.332059         0.192945        -0.345927
 C        -2.786606        -1.164781        -0.943112
 C        -2.242379         1.206754        -1.340644
 O        -3.519818         1.158253        -2.061120
 C        -3.880103         2.182840        -2.817921
 O        -3.296711         3.252830        -2.976364
 H         1.448983        -1.735266         1.543113
 H         1.655290        -1.393233        -0.150116
 H         2.230281        -0.230667         1.024663
 H        -3.097918         0.558194         0.389152
 H        -3.796310        -1.380962        -0.740985
 H        -2.709260        -1.324029        -2.020071
 H        -2.300196        -2.007448        -0.533007
 H        -2.354435         2.148840        -0.797334
 H        -1.405774         1.123953        -2.074198
 H        -4.809751         1.827605        -3.375337
