19
Iteration:   208
 C         0.989298         0.511160        -0.917672
 C        -0.379856         0.447529        -0.545476
 C        -1.461888         0.143386        -0.179109
 C        -2.855993        -0.143035         0.029008
 C        -3.264227        -1.595086         0.367277
 C        -3.435186         0.396362        -1.296335
 O        -3.276787         1.927978        -1.221168
 C        -2.438439         2.355623        -2.167011
 O        -1.701668         1.758817        -2.916610
 H         1.190055        -0.451363        -1.553859
 H         1.103251         1.419137        -1.387323
 H         1.692790         0.345885        -0.160287
 H        -3.237234         0.598724         0.851321
 H        -2.515949        -2.151024         0.880197
 H        -4.198598        -1.609119         0.875874
 H        -3.412900        -2.055428        -0.607867
 H        -2.875547         0.030926        -2.118856
 H        -4.502891         0.236882        -1.404839
 H        -2.612170         3.473083        -2.277615
