19
Iteration:   396
 C         1.422692         0.166875        -0.159506
 C         0.011754        -0.022673        -0.043532
 C        -1.181042         0.175856        -0.155587
 C        -2.661261        -0.094182        -0.071313
 C        -3.114502        -1.606174         0.004725
 C        -3.567673         0.622198        -1.192411
 O        -3.063746         1.978549        -1.232064
 C        -2.659578         2.476394        -2.417967
 O        -2.852799         2.000295        -3.525319
 H         1.675190         0.988665         0.580346
 H         2.010791        -0.700153        -0.234376
 H         1.679377         0.656533        -1.047505
 H        -3.020755         0.284672         0.915155
 H        -2.346733        -2.259560         0.452175
 H        -3.931932        -1.555154         0.688229
 H        -3.404968        -2.018468        -0.975680
 H        -3.473592         0.216978        -2.216921
 H        -4.594237         0.802306        -0.946791
 H        -2.139834         3.524432        -2.310841
