19
Iteration:  2508charge 0 multiplicity 1
 C         1.189969         0.168414         0.698948
 C        -0.122797         0.162963         0.134911
 C        -1.188671         0.103246        -0.358299
 C        -2.555050        -0.365654        -0.520028
 C        -2.716991        -1.930888        -0.634838
 C        -3.485797         0.491792        -1.560659
 O        -3.434374         1.920886        -1.256679
 C        -2.934686         2.733446        -2.156859
 O        -2.469466         2.461482        -3.250987
 H         1.938578        -0.370187         0.034352
 H         1.743420         1.126101         0.870053
 H         1.377793        -0.349171         1.721827
 H        -2.965221        -0.079576         0.456764
 H        -3.400326        -2.155892         0.155117
 H        -3.085310        -2.251439        -1.625372
 H        -1.726264        -2.402931        -0.580759
 H        -3.136328         0.283080        -2.545041
 H        -4.515489         0.193689        -1.323439
 H        -3.211659         3.771212        -1.919076
