19
Iteration:  3810
 C         1.485977        -1.045520         0.777620
 C         0.253738        -0.354879         0.336392
 C        -0.850010         0.037193        -0.010344
 C        -2.289890         0.254672        -0.229795
 C        -2.919795        -0.929719        -1.007351
 C        -2.418609         1.603498        -0.953214
 O        -3.876378         1.758978        -1.461249
 C        -3.953577         2.183463        -2.746656
 O        -2.941215         2.194992        -3.434496
 H         2.184750        -0.176884         0.983208
 H         1.247092        -1.359408         1.798570
 H         1.749030        -1.771858         0.090412
 H        -2.723455         0.322341         0.756638
 H        -3.860173        -1.234939        -0.574666
 H        -3.127660        -0.671489        -2.085686
 H        -2.267564        -1.824374        -1.195250
 H        -2.462682         2.505135        -0.189694
 H        -1.655360         1.804309        -1.712499
 H        -4.928610         2.379842        -3.180940
