19
Iteration:  2360charge 0 multiplicity 1
 C         1.079135         0.673478         0.285568
 C        -0.267091         0.213454        -0.037734
 C        -1.404968        -0.076981        -0.094564
 C        -2.800190        -0.414422        -0.377694
 C        -3.054419        -1.820320        -0.599922
 C        -3.262778         0.357025        -1.589754
 O        -3.318912         1.709820        -1.256054
 C        -2.724280         2.599854        -2.087771
 O        -2.062328         2.448707        -3.075834
 H         1.381954         1.743983         0.343560
 H         1.245005         0.123906         1.232564
 H         1.841044         0.448737        -0.470640
 H        -3.344152        -0.023002         0.503272
 H        -2.277314        -2.484604        -0.119999
 H        -4.069831        -2.078597        -0.198004
 H        -3.009561        -2.107545        -1.707555
 H        -2.607271         0.155304        -2.428235
 H        -4.271906        -0.069619        -1.884594
 H        -2.769476         3.598374        -1.564378
