19
Iteration:   761
 C         1.524960        -0.320884         0.591152
 C         0.109084         0.004514         0.364395
 C        -1.057364         0.116906        -0.087378
 C        -2.556291         0.016616        -0.327751
 C        -3.094477        -1.368733        -0.098802
 C        -2.664526         0.407799        -1.797704
 O        -2.297661         1.782342        -2.074381
 C        -3.266001         2.667575        -2.363665
 O        -4.318021         2.468861        -2.985333
 H         1.753413        -0.056224         1.661175
 H         1.740443        -1.424422         0.613254
 H         2.233643         0.293663         0.068359
 H        -3.096678         0.783477         0.253616
 H        -2.943799        -1.735016         0.951442
 H        -4.193258        -1.449481        -0.368568
 H        -2.470564        -2.055195        -0.753973
 H        -1.869154        -0.213728        -2.290182
 H        -3.641688         0.151772        -2.322546
 H        -2.838825         3.639849        -1.873342
