19
Iteration:   391charge 0 multiplicity 1
 C         1.438181         0.196180        -0.144235
 C         0.061090        -0.027469        -0.094963
 C        -1.192084         0.185727        -0.164601
 C        -2.745279        -0.061213        -0.053048
 C        -3.123221        -1.627713         0.004935
 C        -3.583553         0.648819        -1.182633
 O        -3.090650         1.992509        -1.242949
 C        -2.602490         2.432416        -2.381152
 O        -2.827853         2.000548        -3.533903
 H         1.943298         0.803625         0.590252
 H         2.104613        -0.758483        -0.262805
 H         1.658093         0.847555        -1.195358
 H        -3.040928         0.327086         0.910075
 H        -2.434738        -2.369398         0.445877
 H        -3.983185        -1.660281         0.766216
 H        -3.359394        -2.049897        -0.979450
 H        -3.354370         0.118450        -2.111480
 H        -4.720018         0.693813        -0.971466
 H        -2.355840         3.423128        -2.216103
