19
Iteration:  4391charge 0 multiplicity 1
 C         1.299054        -0.206813         0.962024
 C        -0.019858        -0.537716         0.638444
 C        -1.094006        -0.426733         0.169842
 C        -2.284620        -0.204523        -0.554795
 C        -2.960455        -1.384319        -1.290280
 C        -2.116057         1.171353        -1.273709
 O        -3.361997         1.933966        -1.368006
 C        -3.815252         2.524107        -2.430892
 O        -3.289306         2.570178        -3.529642
 H         1.961844         0.171379         0.096553
 H         1.390089         0.725900         1.554258
 H         1.722190        -0.962115         1.591610
 H        -2.930345        -0.006091         0.291846
 H        -4.040958        -1.338234        -1.198533
 H        -2.529085        -1.345484        -2.391238
 H        -2.450827        -2.157559        -0.711953
 H        -1.487510         1.860821        -0.704921
 H        -1.722435         1.150069        -2.261658
 H        -4.833933         2.832831        -2.188913
