19
Iteration:  4271
 C         1.484581        -0.863657         1.251805
 C         0.188483        -0.547526         0.557789
 C        -0.884979        -0.200872         0.101436
 C        -2.258484         0.152585        -0.444912
 C        -2.728432        -1.001441        -1.358273
 C        -2.190515         1.465289        -1.208299
 O        -3.551479         2.046825        -1.394479
 C        -4.091033         2.228748        -2.582565
 O        -3.485220         2.325656        -3.647099
 H         1.814578         0.042088         1.813064
 H         1.324159        -1.493057         2.140982
 H         2.154964        -1.422049         0.728501
 H        -2.977971         0.291344         0.403833
 H        -3.561610        -0.712404        -1.969975
 H        -1.904844        -1.427092        -2.019473
 H        -3.123071        -1.837290        -0.797766
 H        -1.802356         2.197905        -0.550181
 H        -1.627147         1.378798        -2.138771
 H        -5.187062         2.454985        -2.396591
