19
Iteration:  2483charge 0 multiplicity 1
 C         1.239797         0.054189         0.666292
 C        -0.067929         0.273335         0.066596
 C        -1.274629         0.094780        -0.267953
 C        -2.694430        -0.290881        -0.380619
 C        -2.616434        -1.810455        -0.738087
 C        -3.490989         0.474620        -1.536806
 O        -3.554629         1.921923        -1.243161
 C        -2.927514         2.717166        -2.203536
 O        -2.390974         2.352634        -3.234276
 H         2.073786        -0.219682        -0.050247
 H         1.498664         0.927927         1.173259
 H         1.436498        -0.679250         1.448352
 H        -3.161345        -0.052834         0.579349
 H        -3.073144        -2.328364         0.128378
 H        -2.981265        -2.185950        -1.737315
 H        -1.548848        -1.927910        -0.948594
 H        -2.851851         0.275807        -2.439276
 H        -4.500735         0.103773        -1.568716
 H        -2.993910         3.782015        -1.852911
