19
Iteration:  4033charge 0 multiplicity 1
 C         1.439981        -0.511701         0.995528
 C         0.192919        -0.342179         0.277966
 C        -0.985613        -0.408224        -0.037195
 C        -2.351568         0.057530        -0.468418
 C        -3.182854        -0.833480        -1.307224
 C        -2.136706         1.492728        -1.002219
 O        -3.441419         2.150341        -1.247654
 C        -3.842100         2.185138        -2.520041
 O        -3.227709         1.774934        -3.458006
 H         1.633314        -1.499045         0.834528
 H         2.267142         0.176115         0.605079
 H         1.286379        -0.224116         2.081810
 H        -2.924330         0.244152         0.437503
 H        -4.048650        -1.444575        -0.950369
 H        -3.744717        -0.278352        -2.102360
 H        -2.574403        -1.596567        -1.759068
 H        -1.726976         2.046881        -0.157295
 H        -1.542293         1.549737        -1.978569
 H        -4.756006         2.751533        -2.618535
