19
Iteration:  4570charge 0 multiplicity 1
 C         1.334399        -0.864873         0.769089
 C         0.058181        -0.202897         0.702778
 C        -1.060717        -0.039618         0.336988
 C        -2.361120         0.170794        -0.283127
 C        -2.720264        -1.199182        -1.001371
 C        -2.184272         1.261774        -1.316720
 O        -3.549875         1.237737        -1.951406
 C        -3.945190         2.253848        -2.722016
 O        -3.184195         3.090621        -3.112738
 H         1.399882        -1.818062         1.297800
 H         1.738892        -0.746386        -0.303627
 H         2.080837        -0.157392         1.242427
 H        -3.041955         0.454405         0.495423
 H        -3.796448        -1.581227        -0.855530
 H        -2.554389        -1.113391        -2.057083
 H        -2.202023        -2.144799        -0.677079
 H        -2.174349         2.259294        -0.925161
 H        -1.352182         0.992986        -2.013795
 H        -5.042561         2.279863        -2.641065
