19
Iteration:  2850
 C         1.299545        -0.081159         0.970835
 C        -0.040889         0.044248         0.422992
 C        -1.182265        -0.140091         0.034956
 C        -2.542546        -0.294154        -0.524137
 C        -2.839350        -1.828755        -0.881305
 C        -2.905640         0.578247        -1.723539
 O        -2.787274         1.990770        -1.313830
 C        -3.053971         2.873435        -2.341401
 O        -3.571524         2.571435        -3.410955
 H         2.001246         0.703867         0.756013
 H         1.101964        -0.097022         2.003604
 H         1.617809        -1.115867         0.654662
 H        -3.278044        -0.139458         0.284554
 H        -3.957466        -2.037963        -0.692682
 H        -2.478574        -2.065410        -1.900969
 H        -2.263624        -2.327602        -0.104474
 H        -2.294892         0.420909        -2.643495
 H        -3.860490         0.220000        -2.008460
 H        -2.887855         3.869645        -1.890816
