19
Iteration:  1036charge 0 multiplicity 1
 C         1.181103         0.181856         0.837929
 C        -0.260049         0.207452         0.438713
 C        -1.226531         0.017491        -0.244953
 C        -2.542192        -0.162488        -0.747732
 C        -2.955726        -1.551694        -0.338155
 C        -2.793227         0.230806        -2.233506
 O        -2.267060         1.516641        -2.667256
 C        -3.030389         2.565190        -2.398844
 O        -3.825028         2.720050        -1.510844
 H         1.498942        -0.479783         1.657275
 H         1.848648         0.001973        -0.050116
 H         1.507217         1.322648         1.179196
 H        -3.293696         0.467225        -0.237498
 H        -3.738728        -1.434869         0.381475
 H        -3.232424        -2.112732        -1.229062
 H        -2.120397        -2.098824         0.134688
 H        -2.198869        -0.504294        -2.790592
 H        -3.858676         0.148774        -2.450014
 H        -2.633163         3.274145        -3.129876
