19
Iteration:  4399
 C         1.340977        -0.151661         0.976431
 C         0.015023        -0.557630         0.661592
 C        -1.061217        -0.462910         0.100876
 C        -2.321647        -0.131532        -0.532154
 C        -2.986843        -1.342237        -1.279130
 C        -2.144098         1.189432        -1.315319
 O        -3.362954         1.880147        -1.368594
 C        -3.845545         2.476149        -2.449624
 O        -3.250197         2.593692        -3.476075
 H         2.006389        -0.116506         0.131284
 H         1.185679         0.730256         1.536120
 H         1.829842        -0.876982         1.756387
 H        -2.994488         0.139641         0.296279
 H        -4.089792        -1.328685        -1.506383
 H        -2.712860        -1.612803        -2.246093
 H        -2.761256        -2.314252        -0.813995
 H        -1.458406         1.756155        -0.735540
 H        -1.570905         1.162268        -2.310129
 H        -4.815920         2.869497        -2.181137
