19
Iteration:  4816
 C         1.259547        -0.475188         1.099582
 C         0.070900         0.069524         0.387737
 C        -1.085823         0.201758         0.005303
 C        -2.419311         0.187590        -0.654930
 C        -3.069699        -1.235093        -0.591522
 C        -2.119103         0.597035        -2.048379
 O        -3.439999         0.999167        -2.770351
 C        -3.619433         2.385073        -2.570124
 O        -3.137940         3.080985        -1.685905
 H         2.212360         0.152240         1.189426
 H         0.869623        -0.497863         2.102516
 H         1.499448        -1.500673         0.700782
 H        -3.154229         0.814505        -0.214485
 H        -4.103341        -1.209828        -0.976931
 H        -2.630806        -2.093153        -1.075576
 H        -3.161250        -1.524756         0.467421
 H        -1.535903         1.582267        -2.239899
 H        -1.683133        -0.209886        -2.667429
 H        -4.496838         2.671482        -3.149314
