19
Iteration:  4275charge 0 multiplicity 1
 C         1.479963        -0.852351         1.255746
 C         0.160754        -0.528131         0.555141
 C        -0.912376        -0.191278         0.081433
 C        -2.271361         0.139472        -0.447443
 C        -2.700593        -1.031398        -1.352893
 C        -2.219792         1.459534        -1.223951
 O        -3.557556         2.057316        -1.373386
 C        -4.044836         2.253968        -2.563690
 O        -3.480536         2.317364        -3.647031
 H         1.851874         0.060389         1.700163
 H         1.329382        -1.471933         2.212624
 H         2.248186        -1.455622         0.632844
 H        -2.974623         0.283147         0.404378
 H        -3.571241        -0.791584        -1.975445
 H        -2.039954        -1.518900        -2.102170
 H        -2.968986        -1.935335        -0.758640
 H        -1.670315         2.276241        -0.549095
 H        -1.616711         1.315148        -2.119055
 H        -5.123838         2.477869        -2.417283
