19
Iteration:   958
 C         1.275554         0.001808         0.924501
 C         0.038694         0.185284         0.232259
 C        -1.075374         0.024218        -0.265234
 C        -2.511193        -0.053997        -0.580622
 C        -3.160721        -1.402178        -0.354491
 C        -2.700057         0.297425        -2.059106
 O        -2.190781         1.535029        -2.483656
 C        -3.055684         2.639051        -2.311448
 O        -4.221166         2.560071        -1.980176
 H         1.802283        -0.818404         0.458432
 H         1.932044         0.928215         0.742012
 H         1.394285        -0.280689         2.131104
 H        -3.189887         0.626260         0.028888
 H        -3.654735        -1.352521         0.622222
 H        -3.930012        -1.716907        -1.057148
 H        -2.409752        -2.200277        -0.376180
 H        -2.053489        -0.434758        -2.620129
 H        -3.780735         0.263029        -2.353951
 H        -2.475895         3.398891        -2.820285
