19
Iteration:   561
 C         1.422211        -0.053993         0.209688
 C         0.024976        -0.062506         0.041972
 C        -1.149775         0.111281         0.080070
 C        -2.563490        -0.060725        -0.081209
 C        -3.133850        -1.477497        -0.023669
 C        -2.853066         0.348244        -1.480671
 O        -2.594313         1.859489        -1.488786
 C        -3.073099         2.685549        -2.509855
 O        -3.707016         2.406126        -3.507491
 H         1.845701        -0.228887        -0.821002
 H         1.841500         0.811122         0.736028
 H         1.868720        -0.896063         0.842610
 H        -3.073625         0.625823         0.537237
 H        -2.664882        -2.190575         0.682383
 H        -4.226180        -1.483928         0.223467
 H        -2.997323        -1.998546        -1.005569
 H        -2.260770        -0.286805        -2.218810
 H        -3.937318         0.151836        -1.477322
 H        -2.881378         3.600435        -2.043373
