19
Iteration:  3691
 C         1.600304        -0.822560         0.827379
 C         0.163323        -0.430232         0.727672
 C        -0.945747        -0.180960         0.244966
 C        -2.277837         0.208964        -0.423665
 C        -2.882432        -1.219552        -1.080742
 C        -2.201305         1.400472        -1.338408
 O        -3.667623         1.898254        -1.389520
 C        -3.991093         2.387731        -2.576569
 O        -3.302838         2.387159        -3.583812
 H         1.946505        -0.771775         1.888838
 H         1.539755        -1.938936         0.470085
 H         2.020440        -0.195511         0.015618
 H        -3.119789         0.502412         0.281382
 H        -3.536218        -0.864732        -1.834402
 H        -2.064654        -1.930619        -1.367812
 H        -3.533206        -1.753096        -0.332384
 H        -1.611234         2.230972        -0.944925
 H        -1.978962         1.240118        -2.353439
 H        -4.956077         3.016895        -2.451115
