19
Iteration:  1615charge 0 multiplicity 1
 C         1.431366        -0.016766         0.880291
 C         0.034987        -0.081894         0.371945
 C        -1.180114         0.015673         0.130248
 C        -2.487016        -0.142511        -0.479091
 C        -3.193563        -1.448686        -0.603193
 C        -2.393232         0.500749        -1.926794
 O        -2.201858         1.896612        -1.931093
 C        -3.281440         2.687489        -2.360250
 O        -4.345327         2.281420        -2.782404
 H         1.971756         0.555623         0.153049
 H         1.533245         0.413399         1.881409
 H         1.866450        -1.075703         0.714364
 H        -3.138271         0.504321         0.058031
 H        -2.562642        -2.158409        -0.068334
 H        -4.219361        -1.268871        -0.182584
 H        -3.283027        -1.711863        -1.669799
 H        -1.462636         0.031205        -2.307871
 H        -3.276422         0.249842        -2.580387
 H        -3.075481         3.672669        -2.371587
