19
Iteration:  2944charge 0 multiplicity 1
 C         1.340778        -0.301572         0.829568
 C        -0.028290        -0.135994         0.506031
 C        -1.201754        -0.121279         0.132380
 C        -2.486216        -0.245879        -0.478213
 C        -2.815814        -1.745900        -0.724576
 C        -2.484448         0.710268        -1.768213
 O        -2.941591         2.037858        -1.340677
 C        -3.572365         2.757338        -2.317403
 O        -3.454064         2.683069        -3.521726
 H         1.953111        -0.563195        -0.030293
 H         1.554204         0.802224         1.169498
 H         1.337357        -0.981849         1.654784
 H        -3.281259         0.256278         0.098939
 H        -3.648775        -1.834495        -1.371035
 H        -1.994343        -2.330648        -1.124877
 H        -3.177655        -2.228819         0.165840
 H        -1.494392         0.643151        -2.177824
 H        -3.088839         0.392771        -2.675063
 H        -4.076933         3.553999        -1.703091
