19
Iteration:  3303
 C         1.006156         0.471423         0.932022
 C        -0.235947        -0.007491         0.362290
 C        -1.230133        -0.473107        -0.120617
 C        -2.542413        -0.489081        -0.612495
 C        -3.024789        -1.992929        -0.619008
 C        -2.640041         0.346873        -2.021012
 O        -2.431145         1.822090        -1.575677
 C        -2.877510         2.889811        -2.161559
 O        -3.721787         2.958945        -3.004596
 H         1.425651         1.526912         1.192213
 H         0.980127         0.105995         1.867402
 H         1.898582         0.013286         0.430654
 H        -3.298117        -0.110948         0.118694
 H        -4.071094        -1.798468        -0.764135
 H        -2.696894        -2.440995        -1.568739
 H        -2.619774        -2.586963         0.198697
 H        -1.910632         0.020369        -2.675653
 H        -3.632103         0.314934        -2.518615
 H        -2.312177         3.754569        -1.747799
