19
Iteration:  2798
 C         1.107740         0.196761         1.106072
 C         0.022246        -0.142704         0.229719
 C        -1.085382        -0.208469        -0.303793
 C        -2.491806        -0.352022        -0.517748
 C        -2.889963        -1.757864        -0.941937
 C        -3.229937         0.630345        -1.475836
 O        -2.651357         1.975900        -1.319523
 C        -2.907956         2.829973        -2.307224
 O        -3.451990         2.438818        -3.317299
 H         1.081843         1.323649         1.115425
 H         0.974122        -0.379940         2.053547
 H         2.076055         0.038319         0.523179
 H        -2.968530        -0.233003         0.472078
 H        -3.993407        -1.805727        -0.976224
 H        -2.585629        -1.799673        -1.994759
 H        -2.535608        -2.575598        -0.305762
 H        -3.251725         0.374616        -2.586313
 H        -4.278762         0.536941        -1.189449
 H        -2.371453         3.765355        -2.034467
