19
Iteration:  3443charge 0 multiplicity 1
 C         1.282071        -0.171290         1.090645
 C        -0.108115        -0.132025         0.709450
 C        -1.174832        -0.070383         0.082557
 C        -2.532146        -0.285636        -0.492166
 C        -2.723995        -1.605762        -1.049112
 C        -2.828553         0.545331        -1.761649
 O        -2.505832         1.938789        -1.644332
 C        -3.128157         2.855229        -2.355702
 O        -3.951012         2.626831        -3.231468
 H         1.939941        -0.598097         0.328544
 H         1.626430         0.771404         1.543277
 H         1.155810        -0.965137         1.890445
 H        -3.183900        -0.032251         0.341725
 H        -3.769496        -1.731056        -1.312606
 H        -2.157186        -1.781343        -1.979420
 H        -2.311331        -2.339922        -0.350730
 H        -2.121606         0.023102        -2.405947
 H        -3.840478         0.380651        -2.353587
 H        -2.694145         3.843843        -2.011815
