19
Iteration:  1920charge 0 multiplicity 1
 C         1.189955         0.380119         0.389686
 C        -0.164068         0.152914         0.157560
 C        -1.309138        -0.204087         0.094115
 C        -2.615322        -0.395951        -0.360454
 C        -2.966034        -1.919327        -0.420680
 C        -2.988017         0.462430        -1.583659
 O        -2.957146         1.922721        -1.246732
 C        -3.000699         2.784338        -2.293489
 O        -2.899804         2.468190        -3.454619
 H         1.535609         1.213308         1.069951
 H         1.670552        -0.609786         0.669526
 H         1.819763         0.628130        -0.546030
 H        -3.393596        -0.004700         0.358129
 H        -4.004867        -2.069357        -0.837965
 H        -2.341924        -2.379495        -1.218503
 H        -2.932765        -2.442831         0.572973
 H        -2.464188         0.362922        -2.546051
 H        -4.052457         0.347463        -1.711793
 H        -3.092956         3.809591        -2.018354
