19
Iteration:  2085
 C         1.195945         0.851198         0.046017
 C        -0.212329         0.428941        -0.015275
 C        -1.326326        -0.011830        -0.292351
 C        -2.751811        -0.382519        -0.330202
 C        -2.987369        -1.907061        -0.755683
 C        -3.570835         0.467365        -1.429669
 O        -3.635771         1.914504        -1.309411
 C        -2.566407         2.489237        -1.971146
 O        -1.922382         1.920838        -2.835541
 H         1.713547         0.463692        -0.842975
 H         1.271591         1.911477         0.359694
 H         1.696120         0.424798         0.956188
 H        -3.182204        -0.219101         0.659581
 H        -2.028556        -2.306697        -1.158291
 H        -3.311034        -2.373731         0.204090
 H        -3.787574        -2.079423        -1.528062
 H        -3.241837         0.121982        -2.439302
 H        -4.564690         0.148134        -1.190120
 H        -2.206081         3.540752        -1.345548
