19
Iteration:  4180charge 0 multiplicity 1
 C         1.289137        -1.238593         1.202842
 C         0.224635        -0.416732         0.546690
 C        -0.756455         0.132655         0.054578
 C        -2.144508         0.331324        -0.448556
 C        -2.506365        -1.004968        -1.231627
 C        -2.268113         1.676784        -1.263364
 O        -3.716503         1.984787        -1.368737
 C        -4.149425         2.181278        -2.598918
 O        -3.439379         2.147787        -3.575759
 H         1.094611        -1.238641         2.288727
 H         1.310273        -2.245032         0.898425
 H         2.257829        -0.842450         0.853726
 H        -2.884748         0.514073         0.360667
 H        -2.293647        -0.927480        -2.350093
 H        -2.055469        -1.941145        -0.966917
 H        -3.566263        -1.386427        -1.152417
 H        -1.795899         2.440997        -0.710451
 H        -1.813328         1.562074        -2.249171
 H        -5.269088         2.237901        -2.640473
