19
Iteration:  3139
 C         1.193035         0.029499         0.835327
 C        -0.205948         0.009648         0.379525
 C        -1.406844         0.000170         0.086344
 C        -2.727419        -0.364642        -0.575469
 C        -2.634629        -1.891759        -0.745105
 C        -2.824067         0.479932        -1.812651
 O        -2.450009         1.767339        -1.427783
 C        -3.127911         2.860684        -2.160880
 O        -3.592634         2.845858        -3.297621
 H         1.476234        -0.537665         1.769565
 H         1.640493        -0.640216         0.172718
 H         1.632726         1.083691         0.809891
 H        -3.523502        -0.197401         0.141949
 H        -3.577481        -2.330503        -1.181685
 H        -1.884236        -2.240755        -1.551823
 H        -2.389334        -2.524539         0.106914
 H        -2.348028         0.018178        -2.651792
 H        -3.956377         0.558692        -2.016625
 H        -2.804173         3.768700        -1.711547
