19
Iteration:  2507charge 0 multiplicity 1
 C         1.203227         0.173879         0.698679
 C        -0.128158         0.163705         0.131604
 C        -1.190789         0.101481        -0.356585
 C        -2.555644        -0.358754        -0.519042
 C        -2.707882        -1.932253        -0.629665
 C        -3.487275         0.493270        -1.555831
 O        -3.441386         1.924186        -1.253632
 C        -2.934896         2.731515        -2.159005
 O        -2.463588         2.457865        -3.255901
 H         1.894755        -0.417906         0.030402
 H         1.699764         1.101368         0.908441
 H         1.349647        -0.379144         1.688956
 H        -2.980820        -0.102471         0.454748
 H        -3.402784        -2.166888         0.152450
 H        -3.079740        -2.248440        -1.637479
 H        -1.720804        -2.405662        -0.617004
 H        -3.137584         0.309681        -2.566533
 H        -4.513184         0.205959        -1.333924
 H        -3.222280         3.759950        -1.889164
