19
Iteration:  1284
 C         0.953182         0.801353         0.532409
 C        -0.317333         0.334201         0.123605
 C        -1.513030         0.054018        -0.119627
 C        -2.774044        -0.353060        -0.748172
 C        -3.127555        -1.835762        -0.732486
 C        -2.873885         0.064365        -2.207040
 O        -2.044936         1.277970        -2.372434
 C        -2.500852         2.588574        -1.947383
 O        -3.582328         2.787945        -1.411092
 H         1.895223         0.551340        -0.072515
 H         0.823985         1.938211         0.686611
 H         1.164328         0.545804         1.578177
 H        -3.529876         0.264371        -0.287890
 H        -3.415410        -2.190179        -1.713326
 H        -2.299493        -2.467252        -0.533531
 H        -4.054286        -1.928231        -0.118483
 H        -2.408462        -0.633016        -2.929262
 H        -3.955287         0.159455        -2.438366
 H        -1.546293         3.087507        -2.057998
