19
Iteration:  2975charge 0 multiplicity 1
 C         1.402600        -0.296617         0.966265
 C         0.077928        -0.093941         0.435185
 C        -1.108410        -0.159220         0.139156
 C        -2.441189        -0.171219        -0.473308
 C        -2.954754        -1.584047        -0.936119
 C        -2.532216         0.707140        -1.765016
 O        -3.148413         1.970030        -1.334013
 C        -3.445889         2.808848        -2.291080
 O        -3.470605         2.470010        -3.453844
 H         2.100701        -0.926428         0.332336
 H         1.805676         0.763028         0.955398
 H         1.248563        -0.660424         1.977014
 H        -3.184106         0.166009         0.303820
 H        -3.994708        -1.376064        -1.151419
 H        -2.422301        -1.884212        -1.882271
 H        -2.742250        -2.353354        -0.148928
 H        -1.500879         0.829399        -2.039256
 H        -3.299459         0.257629        -2.485022
 H        -3.316748         3.849565        -1.792969
