19
Iteration:  4745charge 0 multiplicity 1
 C         1.497205        -0.506354         1.041313
 C         0.056169        -0.484984         0.608777
 C        -1.009360        -0.131380         0.211958
 C        -2.281816         0.116323        -0.527927
 C        -3.152421        -1.042137        -0.667139
 C        -1.968419         0.865381        -1.777686
 O        -3.294679         1.100950        -2.574833
 C        -3.878809         2.292073        -2.664172
 O        -3.515103         3.384212        -2.327741
 H         1.810542         0.394897         1.487205
 H         1.642938        -1.271322         1.840587
 H         2.117458        -0.684019         0.177508
 H        -2.875079         0.812121         0.115034
 H        -4.107557        -0.788654        -1.186346
 H        -2.789989        -1.833395        -1.317050
 H        -3.399121        -1.554046         0.273476
 H        -1.429749         1.723200        -1.663595
 H        -1.507704         0.294031        -2.561695
 H        -4.890731         2.071799        -3.063375
