19
Iteration:  4270charge 0 multiplicity 1
 C         1.478859        -0.864200         1.255503
 C         0.198731        -0.553485         0.560246
 C        -0.880841        -0.202185         0.106013
 C        -2.253644         0.153912        -0.443743
 C        -2.733247        -0.996017        -1.360107
 C        -2.183299         1.469452        -1.201936
 O        -3.548779         2.041729        -1.397701
 C        -4.103536         2.225010        -2.591276
 O        -3.487508         2.326924        -3.645862
 H         1.820279         0.039744         1.820572
 H         1.308255        -1.500000         2.108605
 H         2.176090        -1.428886         0.712226
 H        -2.966171         0.288088         0.391168
 H        -3.584349        -0.677017        -1.989310
 H        -1.884005        -1.379961        -1.978397
 H        -3.163051        -1.820145        -0.793676
 H        -1.824624         2.175511        -0.556246
 H        -1.630983         1.400286        -2.159093
 H        -5.188879         2.443975        -2.402685
