19
Iteration:  2230charge 0 multiplicity 1
 C         0.869757         1.043368        -0.134014
 C        -0.450939         0.375123        -0.076834
 C        -1.525022        -0.195015        -0.041672
 C        -2.932652        -0.491931        -0.349476
 C        -3.078221        -1.976690        -0.645444
 C        -3.309812         0.374715        -1.565010
 O        -3.264178         1.831605        -1.193240
 C        -2.376590         2.561492        -1.892709
 O        -1.772217         2.149840        -2.865275
 H         1.406006         0.717679         0.699990
 H         1.314299         0.682407        -1.009619
 H         0.702103         2.069280        -0.494226
 H        -3.471419        -0.233918         0.552768
 H        -4.051557        -2.390669        -0.385054
 H        -2.974766        -2.065219        -1.733950
 H        -2.187573        -2.489995        -0.262842
 H        -2.735633         0.137829        -2.410176
 H        -4.393839         0.278773        -1.724208
 H        -2.567265         3.517318        -1.443687
