19
Iteration:    51charge 0 multiplicity 1
 C         1.235731         0.410610        -0.658007
 C        -0.164296         0.203143        -0.311043
 C        -1.390884         0.274123        -0.108957
 C        -2.800881        -0.058525         0.005731
 C        -3.130500        -1.568291         0.277882
 C        -3.690596         0.394573        -1.178479
 O        -3.352284         1.941701        -1.316552
 C        -2.470489         2.418698        -2.303515
 O        -1.999773         1.780004        -3.228824
 H         1.294840         1.583417        -0.681162
 H         2.006026        -0.005649         0.058711
 H         1.473949        -0.208670        -1.601012
 H        -3.184547         0.596302         0.833160
 H        -2.271570        -2.050715         0.779938
 H        -4.068565        -1.688679         0.838913
 H        -3.309651        -2.080348        -0.683559
 H        -3.598643        -0.197237        -2.141380
 H        -4.764717         0.360667        -0.965108
 H        -2.192052         3.470259        -2.030624
