19
Iteration:   801
 C         1.502040        -0.134149         0.616336
 C         0.059654        -0.259758         0.213425
 C        -1.124611        -0.010552         0.142967
 C        -2.482911         0.040605        -0.421221
 C        -3.151943        -1.329726        -0.142336
 C        -2.569367         0.454811        -1.901199
 O        -2.237961         1.838017        -2.022980
 C        -3.206259         2.697428        -2.553323
 O        -4.381325         2.383906        -2.712953
 H         1.526890         0.822574         1.113865
 H         1.729214        -0.945279         1.300087
 H         2.326715        -0.359499        -0.198085
 H        -3.095210         0.809035         0.138728
 H        -3.452059        -1.310199         0.883890
 H        -3.939667        -1.705626        -0.771855
 H        -2.444704        -2.112927        -0.313294
 H        -1.851012        -0.053339        -2.569489
 H        -3.589222         0.321122        -2.252019
 H        -2.852201         3.709750        -2.652232
