19
Iteration:    30
 C         1.254765         0.408859        -0.587211
 C        -0.178292         0.174509        -0.186099
 C        -1.372771         0.047776        -0.123345
 C        -2.795835        -0.069180         0.044184
 C        -3.034923        -1.595809         0.282102
 C        -3.538744         0.606136        -1.194480
 O        -3.399765         2.036583        -1.419000
 C        -2.518346         2.334941        -2.273066
 O        -2.168399         1.818308        -3.343128
 H         1.553636         1.531428        -0.229334
 H         1.815366        -0.316302        -0.054703
 H         1.351053        -0.025268        -1.550877
 H        -3.170339         0.458103         0.982221
 H        -2.170190        -1.948474         0.856451
 H        -3.948138        -1.667691         0.866028
 H        -3.178025        -2.214740        -0.602287
 H        -3.293738         0.023048        -2.121213
 H        -4.598378         0.443997        -1.070353
 H        -2.259935         3.372313        -2.069120
