19
Iteration:  1596charge 0 multiplicity 1
 C         1.355405        -0.013244         0.853186
 C        -0.001462        -0.131121         0.339317
 C        -1.206305        -0.019285         0.159759
 C        -2.454544         0.042862        -0.514621
 C        -3.134703        -1.467479        -0.575872
 C        -2.386300         0.420642        -1.985553
 O        -2.215482         1.880713        -2.056292
 C        -3.237754         2.631833        -2.315506
 O        -4.339214         2.302319        -2.657368
 H         1.902158         0.879633         0.534533
 H         1.198236         0.145429         1.905819
 H         2.149637        -0.825283         0.723876
 H        -3.176347         0.761353        -0.063341
 H        -3.049634        -1.936635         0.378037
 H        -4.227160        -1.338364        -0.820674
 H        -2.466723        -1.945475        -1.345738
 H        -1.508465        -0.047558        -2.522271
 H        -3.371560         0.238979        -2.461535
 H        -3.017194         3.794757        -2.074876
