19
Iteration:  3150
 C         1.185146         0.065998         0.779497
 C        -0.224602        -0.079847         0.391620
 C        -1.443848         0.009139         0.123644
 C        -2.710182        -0.386093        -0.485333
 C        -2.684617        -1.906505        -0.842272
 C        -2.858338         0.421661        -1.794839
 O        -2.412875         1.840033        -1.464822
 C        -3.019305         2.837396        -2.181332
 O        -3.608436         2.810825        -3.235980
 H         1.281203        -0.013836         1.885733
 H         1.912948        -0.379413         0.144927
 H         1.373425         1.171166         0.587990
 H        -3.602782        -0.093480         0.057779
 H        -3.654204        -2.352634        -1.172960
 H        -1.826564        -1.949306        -1.590993
 H        -2.349979        -2.327010         0.104340
 H        -2.154584         0.079223        -2.518165
 H        -3.930688         0.434734        -2.229920
 H        -2.859368         3.718767        -1.579757
