19
Iteration:   220
 C         1.089727         0.496439        -0.920639
 C        -0.339822         0.447412        -0.449375
 C        -1.470013         0.138228        -0.195034
 C        -2.926686        -0.084089         0.031525
 C        -3.284310        -1.519585         0.247777
 C        -3.481227         0.408088        -1.237559
 O        -3.208973         1.778116        -1.203934
 C        -2.494546         2.403916        -2.202308
 O        -1.744259         1.770458        -2.935074
 H         1.310938        -0.446617        -1.659744
 H         1.349117         1.172625        -1.642144
 H         1.678957         0.661695        -0.102250
 H        -3.325358         0.469747         1.011128
 H        -2.493470        -1.896515         0.864928
 H        -4.085056        -1.502990         0.944564
 H        -3.512290        -2.239810        -0.516074
 H        -2.882042        -0.032259        -1.987640
 H        -4.520213         0.241112        -1.527783
 H        -2.568209         3.525707        -2.074540
