19
Iteration:   870
 C         1.560378        -0.049666         0.671817
 C         0.128508        -0.067063         0.341121
 C        -1.082539        -0.037294         0.112714
 C        -2.502630         0.026762        -0.439178
 C        -3.369200        -1.305552        -0.356682
 C        -2.528181         0.343837        -2.008653
 O        -2.198533         1.720969        -2.278544
 C        -3.170168         2.640788        -2.376861
 O        -4.368788         2.420035        -2.454286
 H         2.105685         0.625780         0.121463
 H         1.487864         0.268886         1.741337
 H         1.955905        -1.113808         0.783848
 H        -3.040965         0.860943         0.128627
 H        -3.024763        -1.799110         0.551161
 H        -4.448269        -1.108635        -0.353800
 H        -3.236225        -1.854507        -1.295099
 H        -1.820090        -0.313571        -2.578798
 H        -3.612074         0.115234        -2.257502
 H        -2.947156         3.668860        -2.087325
