19
Iteration:  1054charge 0 multiplicity 1
 C         1.201271         0.304700         0.888240
 C        -0.153767         0.233157         0.278986
 C        -1.241614         0.205476        -0.226466
 C        -2.591242        -0.112984        -0.738297
 C        -3.119540        -1.626755        -0.418641
 C        -2.786438         0.067586        -2.272634
 O        -2.242633         1.425123        -2.655704
 C        -2.956226         2.595389        -2.295437
 O        -3.789973         2.698114        -1.432154
 H         1.130150        -0.163273         1.855984
 H         1.867376        -0.252164         0.206081
 H         1.664402         1.212919         0.981086
 H        -3.234629         0.629580        -0.217975
 H        -3.965838        -1.630318         0.294632
 H        -3.384097        -2.270049        -1.290390
 H        -2.258461        -2.243757        -0.114893
 H        -2.255898        -0.613210        -2.990857
 H        -3.891548         0.212006        -2.451785
 H        -2.591949         3.382879        -3.074652
