19
Iteration:   891
 C         1.408566        -0.009601         0.767412
 C        -0.000287        -0.193451         0.248168
 C        -1.124643         0.082422        -0.087356
 C        -2.485587         0.006269        -0.454997
 C        -3.241046        -1.305122        -0.276249
 C        -2.460703         0.312592        -2.048491
 O        -2.161981         1.644995        -2.322094
 C        -3.170220         2.634739        -2.221774
 O        -4.382312         2.494670        -2.404452
 H         1.866959         0.318863        -0.124071
 H         1.468495         0.831790         1.516042
 H         2.035296        -0.968891         1.173130
 H        -2.892384         0.874055         0.162438
 H        -2.826379        -1.830240         0.567266
 H        -4.268468        -1.001739        -0.114471
 H        -3.250490        -1.758985        -1.238959
 H        -1.579714        -0.325293        -2.248284
 H        -3.397583        -0.117794        -2.530607
 H        -2.789545         3.635108        -2.299024
