19
Iteration:  3789charge 0 multiplicity 1
 C         1.515359        -1.012282         0.873577
 C         0.210847        -0.432354         0.438088
 C        -0.762667         0.016645        -0.166702
 C        -2.209838         0.273979        -0.314557
 C        -3.044603        -0.841984        -1.040240
 C        -2.496806         1.596678        -0.968749
 O        -3.826331         1.731084        -1.360002
 C        -3.879349         2.002712        -2.735101
 O        -2.988688         2.345280        -3.514860
 H         2.135028        -0.200496         1.344148
 H         1.323568        -1.686609         1.765957
 H         1.860759        -1.506645        -0.016252
 H        -2.537951         0.277702         0.752099
 H        -3.792534        -0.969312        -0.279216
 H        -3.641814        -0.701950        -1.971902
 H        -2.359427        -1.716310        -1.128539
 H        -2.376127         2.523652        -0.305220
 H        -1.839883         1.778801        -1.822607
 H        -4.956305         1.962615        -3.022544
