19
Iteration:  4021
 C         1.420218        -0.488277         0.961374
 C         0.152503        -0.312207         0.260580
 C        -0.992330        -0.386147        -0.098208
 C        -2.310342         0.030040        -0.451901
 C        -3.217558        -0.922929        -1.345605
 C        -2.244981         1.469562        -0.956839
 O        -3.463720         2.206429        -1.148743
 C        -3.758460         2.267883        -2.549343
 O        -3.184850         1.705201        -3.494589
 H         1.961687        -1.369934         0.910824
 H         2.217652         0.292035         0.680495
 H         1.216881        -0.395169         2.039900
 H        -2.797215         0.065672         0.505105
 H        -3.927095        -1.087550        -0.474465
 H        -3.529809        -0.382064        -2.240041
 H        -2.726822        -1.822542        -1.703923
 H        -1.621985         2.077059        -0.310297
 H        -1.630749         1.441202        -1.977705
 H        -4.606433         2.907822        -2.616382
