19
Iteration:  2023
 C         1.072591         0.722037         0.218322
 C        -0.298748         0.247445        -0.078422
 C        -1.424607        -0.101530        -0.243602
 C        -2.729755        -0.441327        -0.313755
 C        -2.970062        -1.983877        -0.448274
 C        -3.273248         0.393226        -1.493640
 O        -3.262923         1.818238        -1.137456
 C        -2.733176         2.643266        -2.155253
 O        -2.164618         2.374969        -3.222090
 H         1.316771         1.463715        -0.534828
 H         1.324662         1.241628         1.147212
 H         1.873098        -0.179595         0.172640
 H        -3.281555        -0.121564         0.638117
 H        -2.238389        -2.373471         0.221860
 H        -3.941918        -2.305767        -0.056798
 H        -2.948912        -2.469669        -1.412020
 H        -2.806961         0.322576        -2.469414
 H        -4.364214         0.109083        -1.635479
 H        -3.003666         3.699246        -1.774315
