19
Iteration:  4760
 C         1.416904        -0.507403         1.017387
 C         0.012317        -0.387033         0.648065
 C        -1.031800        -0.156099         0.157146
 C        -2.320225         0.256493        -0.425110
 C        -3.098578        -1.157306        -0.613097
 C        -2.058848         0.802965        -1.952882
 O        -3.224566         1.099618        -2.676746
 C        -3.927431         2.340114        -2.612141
 O        -3.417367         3.338216        -2.215239
 H         1.720002         0.554982         1.270344
 H         1.625076        -1.174026         1.837304
 H         2.120721        -0.902799         0.166454
 H        -2.857296         0.955187         0.170824
 H        -4.107760        -0.996322        -0.924495
 H        -2.561652        -1.743538        -1.405636
 H        -2.939494        -1.772970         0.294560
 H        -1.498273         1.844283        -1.871409
 H        -1.501547        -0.041481        -2.425545
 H        -4.873232         2.205803        -3.110139
