19
Iteration:  3364
 C         1.198967         0.134653         1.041074
 C        -0.185103        -0.054563         0.462507
 C        -1.286081        -0.085261        -0.014554
 C        -2.634919        -0.281576        -0.567967
 C        -2.712482        -1.757135        -0.977428
 C        -2.975685         0.430374        -1.774463
 O        -2.355547         1.734828        -1.667192
 C        -2.888965         2.785395        -2.256033
 O        -3.829087         2.763088        -3.021864
 H         1.643458         0.871727         0.467012
 H         1.015668         0.478657         2.132905
 H         1.758282        -0.789093         1.177420
 H        -3.309780        -0.007833         0.220269
 H        -3.637589        -2.039159        -1.526540
 H        -1.862106        -2.252969        -1.478400
 H        -2.940565        -2.332227        -0.078104
 H        -2.619720        -0.078404        -2.725329
 H        -4.075234         0.653190        -1.886952
 H        -2.425480         3.707990        -1.872107
