19
Iteration:  3549
 C         1.446869        -0.233487         1.302970
 C         0.221044        -0.327640         0.514860
 C        -0.907857        -0.388771        -0.061362
 C        -2.342394        -0.176143        -0.656885
 C        -3.126450        -1.412653        -0.902873
 C        -2.456705         0.729889        -1.914818
 O        -3.025722         2.015367        -1.373938
 C        -3.679411         2.793114        -2.266097
 O        -3.664964         2.560267        -3.454743
 H         1.685953        -1.260547         1.548764
 H         2.422836         0.167912         0.784023
 H         1.266948         0.287137         2.270107
 H        -2.865251         0.439559         0.121411
 H        -4.196508        -1.184465        -1.016518
 H        -2.589506        -2.003372        -1.729142
 H        -3.086275        -1.961319         0.057530
 H        -1.477442         0.756035        -2.407856
 H        -3.217501         0.267318        -2.520336
 H        -3.982289         3.705162        -1.684777
