19
Iteration:  1418charge 0 multiplicity 1
 C         1.153911         0.291185         1.181198
 C        -0.070892         0.251516         0.301765
 C        -1.208014         0.074272        -0.239734
 C        -2.516186        -0.142417        -0.868450
 C        -3.148234        -1.584653        -0.527517
 C        -2.679136         0.184106        -2.381984
 O        -2.357197         1.522828        -2.775002
 C        -2.937495         2.534363        -2.183605
 O        -3.867936         2.593035        -1.440266
 H         0.970257        -0.152096         2.135796
 H         2.042939        -0.105528         0.665506
 H         1.308339         1.393225         1.439813
 H        -3.213402         0.557605        -0.410078
 H        -2.372674        -2.125796         0.024006
 H        -4.037245        -1.386665         0.033904
 H        -3.422907        -2.172908        -1.370948
 H        -1.961123        -0.401773        -2.982394
 H        -3.733084        -0.052902        -2.701309
 H        -2.323409         3.522000        -2.400153
