19
Iteration:  3209
 C         1.127040         0.471807         0.765188
 C        -0.219234         0.060768         0.468275
 C        -1.312143        -0.394088         0.083364
 C        -2.631890        -0.554394        -0.491467
 C        -3.139586        -1.894057        -1.074993
 C        -2.697728         0.493165        -1.689473
 O        -2.329964         1.937752        -1.439826
 C        -2.844497         2.860322        -2.221426
 O        -3.680139         2.583066        -3.041098
 H         1.422238         1.071982         1.580023
 H         1.883060        -0.422034         0.890465
 H         1.261733         1.084578        -0.074751
 H        -3.338976        -0.163289         0.286407
 H        -4.011682        -1.710862        -1.735590
 H        -2.452122        -2.468498        -1.671709
 H        -3.440693        -2.626251        -0.280716
 H        -1.902647         0.395680        -2.524032
 H        -3.713724         0.469882        -2.092910
 H        -2.145043         3.746738        -2.372924
