19
Iteration:  1186
 C         0.964818         0.914496         0.468512
 C        -0.270832         0.320710         0.078642
 C        -1.407173        -0.045380        -0.021916
 C        -2.780875        -0.351970        -0.660438
 C        -3.365420        -1.888314        -0.740653
 C        -2.732989         0.124776        -2.087580
 O        -2.069313         1.373776        -2.567245
 C        -2.532294         2.495029        -1.956164
 O        -3.540659         2.751789        -1.363365
 H         1.029707         2.038531         0.264489
 H         0.862503         0.787783         1.622792
 H         1.864687         0.461789         0.116102
 H        -3.606084         0.167269        -0.147243
 H        -2.691384        -2.670166        -0.335615
 H        -4.278262        -1.887958        -0.108167
 H        -3.540994        -2.141240        -1.843584
 H        -2.163617        -0.685918        -2.613360
 H        -3.786825         0.167975        -2.509805
 H        -1.632384         3.148111        -2.131610
