19
Iteration:  1775charge 0 multiplicity 1
 C         1.378135        -0.110962         0.894827
 C         0.057092        -0.046875         0.336387
 C        -1.069264         0.017322        -0.105913
 C        -2.449332        -0.083617        -0.407367
 C        -2.771538        -1.622828        -0.485171
 C        -2.993495         0.478999        -1.675415
 O        -2.761981         1.960871        -1.473286
 C        -3.174689         2.748422        -2.424342
 O        -3.818329         2.391711        -3.428714
 H         1.700138        -1.187788         1.186971
 H         2.308051         0.092528         0.268993
 H         1.486812         0.421622         1.790596
 H        -3.040604         0.509347         0.342868
 H        -3.251125        -2.134880         0.369257
 H        -3.536001        -1.833015        -1.254178
 H        -1.973066        -2.166791        -0.990143
 H        -2.520947         0.311564        -2.600517
 H        -4.061439         0.274063        -1.738695
 H        -2.779602         3.746774        -2.184842
