19
Iteration:  3505charge 0 multiplicity 1
 C         1.174401        -0.243633         1.211226
 C         0.051981        -0.229031         0.364815
 C        -1.047851        -0.289258        -0.183918
 C        -2.375845        -0.176147        -0.626391
 C        -2.945174        -1.693194        -0.698527
 C        -2.366609         0.658776        -1.904657
 O        -2.825604         2.028005        -1.422153
 C        -3.424189         2.893309        -2.242868
 O        -3.831420         2.632051        -3.381211
 H         1.872516        -1.066640         1.184482
 H         1.874179         0.677758         1.268325
 H         0.788607        -0.181108         2.229137
 H        -2.957694         0.437195         0.101759
 H        -3.888801        -2.029229        -1.216884
 H        -2.007496        -2.288674        -0.994406
 H        -3.123144        -2.004180         0.360982
 H        -1.372823         0.905005        -2.372928
 H        -3.078873         0.317636        -2.630352
 H        -3.626675         3.862144        -1.763488
