19
Iteration:   510charge 0 multiplicity 1
 C         1.424172         0.050949        -0.021754
 C         0.065148        -0.053140         0.228309
 C        -1.155333        -0.034860         0.011176
 C        -2.577024        -0.203470        -0.173704
 C        -3.144936        -1.579512         0.109474
 C        -3.028988         0.564619        -1.461058
 O        -2.758435         2.012395        -1.354317
 C        -3.035188         2.671529        -2.489777
 O        -3.439553         2.255985        -3.591493
 H         1.773884         0.739010        -0.878730
 H         1.880816         0.287232         0.965388
 H         1.882321        -0.892968        -0.229687
 H        -3.060676         0.511524         0.632698
 H        -3.317703        -1.943879         1.110302
 H        -4.177728        -1.508546        -0.263804
 H        -2.553922        -2.376551        -0.316584
 H        -2.483975         0.142614        -2.275578
 H        -4.096191         0.312322        -1.506808
 H        -2.470648         3.674379        -2.181552
