19
Iteration:  4806
 C         1.243415        -0.476205         1.078989
 C         0.049476        -0.017340         0.423632
 C        -1.052707         0.252306         0.065683
 C        -2.364728         0.095981        -0.642368
 C        -3.129043        -1.293659        -0.532408
 C        -2.114687         0.754601        -2.080659
 O        -3.408420         1.046891        -2.725256
 C        -3.658857         2.311870        -2.602763
 O        -3.174253         3.095499        -1.781401
 H         2.158588         0.244468         1.041315
 H         1.061242        -0.883570         2.101023
 H         1.576391        -1.413575         0.567377
 H        -2.977050         0.894925        -0.208261
 H        -4.180020        -1.041143        -0.888869
 H        -2.614315        -1.925369        -1.232724
 H        -2.996846        -1.731655         0.464582
 H        -1.412924         1.692919        -1.831088
 H        -1.736543        -0.052642        -2.747305
 H        -4.460647         2.641123        -3.311852
