19
Iteration:  4538charge 0 multiplicity 1
 C         1.518138        -0.742742         0.906382
 C         0.128045        -0.385404         0.567867
 C        -1.010562        -0.070759         0.365208
 C        -2.350886         0.059702        -0.262586
 C        -2.763273        -1.361379        -1.059114
 C        -2.369232         1.222886        -1.319395
 O        -3.755229         1.434568        -1.798478
 C        -3.932933         2.347357        -2.756361
 O        -3.088724         3.079420        -3.256680
 H         1.793383        -1.743657         1.138274
 H         2.147402        -0.361255         0.055610
 H         1.822714        -0.050064         1.754677
 H        -3.022757         0.332731         0.558043
 H        -3.858975        -1.229457        -1.235167
 H        -2.251680        -1.330423        -1.975146
 H        -2.383302        -2.161605        -0.407911
 H        -1.945971         2.153916        -0.958685
 H        -1.635920         1.000087        -2.144370
 H        -5.036077         2.564614        -2.845888
