19
Iteration:   297charge 0 multiplicity 1
 C         1.227922         0.445197        -0.627142
 C        -0.130247         0.035425        -0.302993
 C        -1.323744         0.003582        -0.121976
 C        -2.769388        -0.071942        -0.032295
 C        -3.191491        -1.518530         0.139340
 C        -3.530232         0.547697        -1.161119
 O        -3.259125         1.983262        -1.218625
 C        -2.624502         2.423167        -2.282169
 O        -2.149188         1.823324        -3.249022
 H         1.970227        -0.167450         0.141027
 H         1.526303         0.414166        -1.676795
 H         1.298714         1.426089        -0.251926
 H        -3.159878         0.504243         0.914366
 H        -3.214166        -1.775169         1.200529
 H        -4.221471        -1.597369        -0.148975
 H        -2.491174        -2.158439        -0.397836
 H        -3.294109         0.178532        -2.138906
 H        -4.601238         0.558941        -0.991878
 H        -2.372073         3.547674        -2.141365
