19
Iteration:  3459
 C         1.282835        -0.236264         1.188696
 C        -0.075472        -0.193360         0.656362
 C        -1.132701        -0.019400         0.027740
 C        -2.433382        -0.207148        -0.521843
 C        -2.806870        -1.728419        -0.937759
 C        -2.723649         0.565571        -1.878929
 O        -2.546805         1.958762        -1.586044
 C        -3.270428         2.879299        -2.308371
 O        -3.907139         2.652148        -3.299616
 H         1.883152        -0.676783         0.318610
 H         1.624777         0.815321         1.287408
 H         1.523983        -0.687579         2.146120
 H        -3.249772         0.043521         0.210307
 H        -3.873274        -1.737199        -1.275597
 H        -2.240495        -2.088239        -1.811143
 H        -2.719957        -2.570854        -0.232652
 H        -2.096391         0.341736        -2.772342
 H        -3.706421         0.407959        -2.171842
 H        -3.191777         3.900327        -1.874783
