19
Iteration:  1692charge 0 multiplicity 1
 C         1.513065        -0.103600         0.887957
 C         0.091903        -0.228821         0.373345
 C        -1.087974         0.002071         0.069869
 C        -2.525475        -0.067980        -0.355134
 C        -3.016504        -1.537826        -0.533562
 C        -2.590575         0.507279        -1.790543
 O        -2.495209         1.944313        -1.769521
 C        -3.331254         2.735382        -2.388172
 O        -4.133338         2.398237        -3.214999
 H         2.277790        -0.455251         0.219218
 H         1.623300         0.974745         0.975246
 H         1.714096        -0.483151         2.014054
 H        -3.285850         0.401029         0.213838
 H        -3.558874        -1.729274        -1.463968
 H        -2.169947        -2.273094        -0.393227
 H        -3.889158        -1.422729         0.148138
 H        -1.653431         0.126871        -2.314924
 H        -3.487843         0.206217        -2.398577
 H        -3.381087         3.728560        -2.057684
