19
Iteration:  2224charge 0 multiplicity 1
 C         0.876262         1.016916        -0.187752
 C        -0.461042         0.383158        -0.009534
 C        -1.544100        -0.133796        -0.069318
 C        -2.923143        -0.461876        -0.353335
 C        -3.032336        -1.937457        -0.691802
 C        -3.359847         0.380420        -1.540921
 O        -3.278164         1.793113        -1.150938
 C        -2.431304         2.517436        -1.942864
 O        -1.736442         2.122909        -2.840571
 H         1.478329         0.766482         0.758743
 H         1.254817         0.638019        -1.221738
 H         0.785322         2.132945        -0.285292
 H        -3.525216        -0.221250         0.568293
 H        -4.069494        -2.242475        -0.448679
 H        -2.816461        -2.052667        -1.771545
 H        -2.325416        -2.637210        -0.209884
 H        -2.611270         0.204039        -2.399377
 H        -4.401971         0.287680        -1.882937
 H        -2.215820         3.507715        -1.305361
