19
Iteration:  1860charge 0 multiplicity 1
 C         1.438926         0.139594         0.649527
 C         0.018165         0.008356         0.338306
 C        -1.179101        -0.021140         0.101855
 C        -2.566929        -0.270522        -0.376503
 C        -2.924303        -1.688131        -0.659515
 C        -3.093509         0.567378        -1.565773
 O        -2.948831         1.947833        -1.284100
 C        -3.008051         2.702569        -2.405207
 O        -3.359920         2.307679        -3.489684
 H         1.642500        -0.001637         1.722707
 H         1.999794        -0.654086         0.071818
 H         1.669069         1.100416         0.205130
 H        -3.175526         0.084668         0.446983
 H        -2.519080        -1.847234        -1.689780
 H        -2.637246        -2.349967         0.149334
 H        -4.028051        -1.756096        -0.865615
 H        -2.560281         0.342203        -2.507038
 H        -4.144416         0.215801        -1.695746
 H        -2.749044         3.753326        -2.083104
