19
Iteration:  2441
 C         1.290248         0.124724         0.464953
 C        -0.123684         0.165592         0.224463
 C        -1.363388         0.266381        -0.005746
 C        -2.756435        -0.245813        -0.367044
 C        -2.640764        -1.716653        -0.844271
 C        -3.444511         0.455903        -1.565586
 O        -3.568954         1.870458        -1.297299
 C        -2.890583         2.607736        -2.161447
 O        -2.283552         2.272963        -3.162646
 H         1.788341         0.623673        -0.411909
 H         1.786883         0.721921         1.267519
 H         1.651964        -0.961971         0.682026
 H        -3.384139        -0.188100         0.525526
 H        -2.425577        -2.415852        -0.024080
 H        -3.662438        -1.996426        -1.222204
 H        -1.949714        -1.797491        -1.741493
 H        -2.707070         0.356979        -2.397193
 H        -4.422311         0.037240        -1.772424
 H        -3.100137         3.667891        -2.112647
