19
Iteration:  1157
 C         0.911406         0.824660         0.525872
 C        -0.353503         0.356537         0.196064
 C        -1.336344        -0.171400        -0.213384
 C        -2.765284        -0.242666        -0.780656
 C        -3.263831        -1.719798        -0.521365
 C        -2.759220         0.120941        -2.242250
 O        -2.078219         1.404204        -2.496692
 C        -2.554065         2.519617        -2.018313
 O        -3.567428         2.611442        -1.310016
 H         1.033974         1.803699         0.814982
 H         1.128536         0.291252         1.396437
 H         1.686884         0.559181        -0.260789
 H        -3.433987         0.525353        -0.328017
 H        -2.599294        -2.326048         0.092373
 H        -4.293432        -1.711587        -0.279464
 H        -3.219637        -2.188483        -1.504517
 H        -2.168787        -0.592271        -2.821843
 H        -3.759396         0.157890        -2.671811
 H        -1.798008         3.199397        -2.488131
