19
Iteration:  4990
 C         1.261486         0.103467         0.997292
 C        -0.088226        -0.146377         0.570365
 C        -1.105721        -0.312939        -0.133968
 C        -2.434608        -0.070827        -0.633538
 C        -3.257414        -1.375002        -0.774708
 C        -2.134733         0.568104        -2.036227
 O        -3.324951         1.168468        -2.699573
 C        -3.613475         2.435247        -2.341743
 O        -2.948100         3.207387        -1.705897
 H         1.783322        -0.781552         0.493709
 H         1.566669         0.920580         0.403505
 H         1.565860         0.338778         2.046510
 H        -2.883014         0.682507         0.152675
 H        -4.355603        -1.095846        -0.968965
 H        -2.899357        -1.978086        -1.675077
 H        -3.301070        -2.010883         0.133440
 H        -1.259321         1.349853        -2.074575
 H        -1.903841        -0.249552        -2.770737
 H        -4.692773         2.618654        -2.646112
