19
Iteration:    33charge 0 multiplicity 1
 C         1.234388         0.396880        -0.598254
 C        -0.158511         0.174738        -0.201673
 C        -1.388814         0.089603        -0.116173
 C        -2.789576        -0.076273         0.024894
 C        -3.048204        -1.601836         0.284691
 C        -3.549084         0.620303        -1.193098
 O        -3.397085         2.002954        -1.427188
 C        -2.504643         2.331575        -2.278257
 O        -2.151008         1.822902        -3.313819
 H         1.517952         1.503487        -0.323538
 H         1.839035        -0.201021         0.016061
 H         1.337170         0.038518        -1.580781
 H        -3.165108         0.406920         0.964992
 H        -2.198282        -1.959585         0.843037
 H        -3.923425        -1.650377         0.913071
 H        -3.193152        -2.232151        -0.577809
 H        -3.316721         0.061083        -2.092014
 H        -4.584904         0.471432        -0.981037
 H        -2.287988         3.348219        -2.034352
