19
Iteration:  1533
 C         1.336168        -0.013340         1.013013
 C        -0.109019         0.148591         0.501164
 C        -1.153520         0.032532        -0.097386
 C        -2.458154        -0.033346        -0.732915
 C        -3.050582        -1.498581        -0.512889
 C        -2.518259         0.343462        -2.217877
 O        -2.132084         1.740388        -2.291607
 C        -3.182062         2.595090        -2.345539
 O        -4.366107         2.452795        -2.149054
 H         1.661284         0.899138         1.614587
 H         1.217458        -0.886858         1.694843
 H         2.062251        -0.296174         0.277373
 H        -2.956213         0.802627        -0.149591
 H        -4.186873        -1.518601        -0.627341
 H        -2.739031        -2.374868        -1.094564
 H        -2.829470        -1.903580         0.522338
 H        -1.763323        -0.106194        -2.870874
 H        -3.504953         0.141119        -2.595416
 H        -2.593786         3.495944        -2.642897
