19
Iteration:  1676charge 0 multiplicity 1
 C         1.441678        -0.058660         0.848617
 C         0.057665        -0.198603         0.444651
 C        -1.099177        -0.034191         0.076789
 C        -2.470564        -0.069001        -0.455705
 C        -3.116855        -1.521513        -0.503262
 C        -2.517640         0.547938        -1.862100
 O        -2.381182         1.970746        -1.717997
 C        -3.341965         2.734755        -2.391619
 O        -4.215989         2.303506        -3.149469
 H         2.138984        -0.292301        -0.007734
 H         1.846766         0.921262         1.215240
 H         1.655441        -0.678378         1.650599
 H        -3.002068         0.625539         0.284545
 H        -3.025827        -1.944854        -1.538288
 H        -2.488866        -2.213726         0.023834
 H        -4.133715        -1.784094        -0.230364
 H        -1.720640         0.184845        -2.481251
 H        -3.435853         0.373223        -2.398829
 H        -2.951136         3.843822        -2.165922
