19
Iteration:  2734
 C         1.200763         0.431911         0.747653
 C        -0.161618         0.103668         0.324083
 C        -1.282281        -0.249864        -0.123016
 C        -2.684705        -0.482049        -0.447050
 C        -2.964524        -1.875498        -0.988704
 C        -3.243734         0.551209        -1.503171
 O        -2.596319         1.778113        -1.277661
 C        -2.713082         2.745742        -2.222636
 O        -3.285120         2.632250        -3.287054
 H         1.160759         0.955679         1.722055
 H         1.945092        -0.334386         1.160059
 H         1.818014         0.886927         0.014389
 H        -3.274213        -0.300981         0.470157
 H        -3.934532        -1.922545        -1.411402
 H        -2.242514        -2.074728        -1.788036
 H        -2.868474        -2.665186        -0.235615
 H        -3.106566         0.118527        -2.511969
 H        -4.339308         0.692887        -1.453909
 H        -2.075699         3.611134        -2.008098
