19
Iteration:  1428
 C         1.063733         0.283635         1.088636
 C        -0.136816         0.220753         0.430923
 C        -1.074408         0.068717        -0.299412
 C        -2.495421        -0.143363        -0.843354
 C        -3.097971        -1.559137        -0.485950
 C        -2.675201         0.143590        -2.367093
 O        -2.312835         1.545778        -2.757676
 C        -2.984310         2.611307        -2.237401
 O        -3.928876         2.575374        -1.451542
 H         0.875205        -0.163553         2.074272
 H         1.951617        -0.365194         0.835160
 H         1.588417         1.209970         1.301201
 H        -3.152379         0.579373        -0.389572
 H        -2.406463        -2.361478        -0.174072
 H        -3.820544        -1.378115         0.289767
 H        -3.541675        -1.842031        -1.417699
 H        -1.986251        -0.449533        -2.985536
 H        -3.724343        -0.047068        -2.701255
 H        -2.330072         3.604696        -2.549892
