19
Iteration:  2013charge 0 multiplicity 1
 C         1.097185         0.728100         0.183441
 C        -0.230794         0.249955        -0.004924
 C        -1.380228        -0.144134        -0.181428
 C        -2.794467        -0.470287        -0.380811
 C        -2.986358        -2.046115        -0.389474
 C        -3.261595         0.404376        -1.495538
 O        -3.240832         1.849426        -1.209025
 C        -2.740420         2.662970        -2.154521
 O        -2.260656         2.425114        -3.225674
 H         1.475385         1.545760        -0.417003
 H         1.130436         0.909983         1.254665
 H         1.823038        -0.141271         0.017949
 H        -3.350353        -0.090190         0.521075
 H        -2.413377        -2.452107         0.420099
 H        -4.047091        -2.223377        -0.217744
 H        -2.584124        -2.509160        -1.282552
 H        -2.610500         0.225080        -2.339964
 H        -4.348791         0.185029        -1.732047
 H        -2.690767         3.769994        -1.823339
