19
Iteration:  4552charge 0 multiplicity 1
 C         1.482221        -0.723619         0.825183
 C         0.065821        -0.338917         0.648067
 C        -1.061871        -0.083389         0.337052
 C        -2.374154         0.077913        -0.305870
 C        -2.710820        -1.185116        -0.986682
 C        -2.326104         1.242404        -1.327470
 O        -3.644262         1.267752        -1.836713
 C        -3.892394         2.379006        -2.658868
 O        -3.134621         3.092916        -3.252623
 H         1.351335        -1.766042         1.034490
 H         2.018131        -0.852636        -0.058412
 H         2.059224        -0.274360         1.667842
 H        -3.268919         0.265904         0.363550
 H        -3.744819        -1.452861        -1.007349
 H        -2.398486        -1.202200        -2.018309
 H        -2.224567        -2.049342        -0.566661
 H        -2.071914         2.198500        -0.861527
 H        -1.691611         0.903779        -2.211649
 H        -4.996352         2.279436        -2.925460
