19
Iteration:  1735
 C         1.504428        -0.176111         0.893159
 C         0.089987         0.011712         0.447267
 C        -1.047526        -0.088274        -0.013851
 C        -2.472789        -0.144212        -0.472414
 C        -2.935600        -1.750689        -0.398354
 C        -2.782256         0.529470        -1.794404
 O        -2.627361         2.016729        -1.611970
 C        -3.298338         2.861239        -2.467902
 O        -4.023519         2.443133        -3.369857
 H         1.857867        -1.157083         0.715757
 H         1.924149         0.728651         0.513552
 H         1.413009        -0.159939         2.031107
 H        -3.009051         0.404532         0.333710
 H        -3.972060        -1.880028        -0.168031
 H        -2.573903        -2.251241        -1.378071
 H        -2.268872        -2.042423         0.422854
 H        -1.978066         0.109789        -2.446758
 H        -3.789955         0.222394        -2.129646
 H        -3.115858         3.992294        -2.157897
