19
Iteration:  4575
 C         1.329355        -0.843100         0.765072
 C         0.096184        -0.210619         0.716055
 C        -1.067880         0.008588         0.353084
 C        -2.334139         0.143279        -0.257666
 C        -2.761728        -1.235151        -0.978410
 C        -2.183625         1.334747        -1.346933
 O        -3.514118         1.205315        -1.967228
 C        -3.952599         2.226490        -2.739749
 O        -3.194076         3.116651        -3.080540
 H         1.347801        -1.877118         1.165453
 H         1.585500        -1.103944        -0.250471
 H         2.085284        -0.213243         1.229612
 H        -3.203300         0.357943         0.460998
 H        -3.770265        -1.515232        -0.946717
 H        -2.631549        -1.135298        -2.097705
 H        -2.196251        -2.124058        -0.785664
 H        -2.126528         2.415453        -1.024991
 H        -1.410034         0.963053        -2.037698
 H        -5.089929         2.230256        -2.718275
