19
Iteration:  2996charge 0 multiplicity 1
 C         1.487691        -0.188981         1.096844
 C         0.100521        -0.228427         0.469311
 C        -1.033778        -0.249152         0.020000
 C        -2.422663        -0.204100        -0.529396
 C        -2.974712        -1.541818        -1.000570
 C        -2.660454         0.770230        -1.673757
 O        -3.181194         2.038705        -1.219762
 C        -3.395110         2.824616        -2.367158
 O        -3.457421         2.417069        -3.507622
 H         1.865287        -1.065323         0.535855
 H         2.017838         0.625680         0.731008
 H         1.347587        -0.407345         2.154623
 H        -3.135657         0.326274         0.108300
 H        -4.069434        -1.499307        -0.836203
 H        -2.736296        -1.789894        -2.084781
 H        -2.535697        -2.398820        -0.380256
 H        -1.788030         0.886728        -2.303756
 H        -3.549377         0.264793        -2.199791
 H        -3.643071         3.813125        -1.903505
