19
Iteration:   640
 C         1.598718        -0.151550         0.628927
 C         0.189888        -0.134073         0.290028
 C        -0.953719        -0.107631        -0.181509
 C        -2.446037        -0.104805        -0.276999
 C        -3.189066        -1.434460        -0.101897
 C        -3.087988         0.600151        -1.535606
 O        -2.443056         1.989153        -1.713424
 C        -3.116089         2.673742        -2.618194
 O        -4.114094         2.330653        -3.236594
 H         2.285100        -1.088228         0.260540
 H         1.936573         0.531690        -0.233665
 H         1.982487         0.205386         1.568869
 H        -2.674782         0.483754         0.573359
 H        -3.257845        -1.620030         0.966305
 H        -4.159969        -1.468283        -0.691952
 H        -2.710997        -2.235185        -0.658581
 H        -2.776744        -0.043740        -2.400137
 H        -4.211489         0.632861        -1.534994
 H        -2.671750         3.621231        -2.752108
