19
Iteration:  1933charge 0 multiplicity 1
 C         1.308445         0.426649         0.337075
 C        -0.161281         0.190814         0.196892
 C        -1.325463        -0.171693         0.117086
 C        -2.703960        -0.424982        -0.371647
 C        -3.020515        -1.914504        -0.451525
 C        -3.079980         0.438074        -1.639087
 O        -2.996926         1.860424        -1.227682
 C        -2.914585         2.730930        -2.265886
 O        -2.835706         2.522244        -3.456681
 H         1.380411         1.331773         0.907165
 H         1.807606        -0.312782         0.958893
 H         1.616931         0.557786        -0.785608
 H        -3.270279        -0.008373         0.532817
 H        -4.107497        -1.964881        -0.236002
 H        -2.733545        -2.447765        -1.357283
 H        -2.455627        -2.389853         0.383161
 H        -2.309787         0.184789        -2.439718
 H        -4.046087         0.144680        -2.027391
 H        -3.000465         3.713720        -1.696791
