19
Iteration:   849
 C         1.506200        -0.083240         0.667055
 C         0.099216         0.050320         0.398625
 C        -1.076239        -0.208773         0.082287
 C        -2.439569        -0.021500        -0.495288
 C        -3.301761        -1.280334        -0.304022
 C        -2.598008         0.450843        -1.925171
 O        -2.163030         1.824994        -2.167071
 C        -3.181410         2.617726        -2.440518
 O        -4.366113         2.334249        -2.503819
 H         1.968788         0.736951         0.189365
 H         1.904282        -0.272550         1.686870
 H         1.668293        -0.997681         0.133584
 H        -3.050315         0.731346         0.088287
 H        -3.371210        -1.628963         0.759179
 H        -4.318915        -1.005190        -0.676781
 H        -3.085842        -2.117342        -1.028722
 H        -2.014582        -0.076362        -2.714888
 H        -3.705171         0.398187        -2.182367
 H        -2.850894         3.611135        -2.944830
