19
Iteration:  2320
 C         1.011659         0.931739         0.206866
 C        -0.242523         0.279961        -0.018922
 C        -1.326100        -0.261697        -0.271211
 C        -2.750323        -0.542384        -0.504849
 C        -3.318850        -2.012253        -0.418177
 C        -3.257728         0.364325        -1.688838
 O        -3.303384         1.785017        -1.229366
 C        -2.552067         2.617874        -1.950165
 O        -2.025320         2.426436        -3.019178
 H         0.761499         1.838992         0.834252
 H         1.775801         0.332512         0.666212
 H         1.663414         1.266591        -0.762717
 H        -3.320050        -0.133290         0.340908
 H        -3.376041        -2.156629         0.681578
 H        -4.332611        -2.155324        -0.799631
 H        -2.819696        -2.740252        -1.041233
 H        -2.484929         0.338577        -2.508983
 H        -4.294788         0.198071        -1.943841
 H        -2.272026         3.518891        -1.374452
