19
Iteration:  3231
 C         1.083400         0.579410         0.779404
 C        -0.219743         0.066337         0.387307
 C        -1.206595        -0.478701        -0.024906
 C        -2.634171        -0.459389        -0.502470
 C        -3.224427        -1.787254        -1.074498
 C        -2.706812         0.503191        -1.698995
 O        -2.186851         1.788593        -1.392538
 C        -2.888040         2.750748        -2.167837
 O        -3.689517         2.577657        -3.070740
 H         1.187074         1.191606         1.629039
 H         1.565130        -0.306489         1.430220
 H         1.719443         1.066750         0.101486
 H        -3.345984         0.009064         0.209719
 H        -4.071881        -1.461158        -1.712134
 H        -2.554585        -2.434522        -1.633101
 H        -3.572760        -2.411065        -0.207526
 H        -2.063114         0.196652        -2.646500
 H        -3.716607         0.646494        -2.079567
 H        -2.773730         3.775269        -1.681806
