19
Iteration:  4507charge 0 multiplicity 1
 C         1.538221        -0.564364         1.072753
 C         0.181085        -0.409814         0.473510
 C        -0.925196        -0.270552         0.019076
 C        -2.328721        -0.020739        -0.358750
 C        -2.822484        -1.401560        -1.009664
 C        -2.521544         1.279806        -1.281815
 O        -3.855279         1.588174        -1.589011
 C        -3.844436         2.365269        -2.723035
 O        -2.989320         2.995483        -3.335166
 H         1.970175        -1.499001         0.967127
 H         2.217484         0.020754         0.497427
 H         1.502018        -0.211101         2.146825
 H        -2.875159         0.179947         0.613250
 H        -3.644184        -1.188887        -1.720470
 H        -2.009866        -1.836194        -1.481752
 H        -3.186267        -2.023241        -0.196153
 H        -2.078495         2.105678        -0.745056
 H        -2.004812         1.033273        -2.292986
 H        -4.938540         2.579474        -2.949741
