19
Iteration:  1613charge 0 multiplicity 1
 C         1.417718        -0.014666         0.873472
 C         0.043373        -0.098119         0.364135
 C        -1.173102         0.021567         0.148214
 C        -2.485361        -0.123550        -0.482690
 C        -3.180940        -1.440117        -0.611827
 C        -2.393984         0.495536        -1.934217
 O        -2.202335         1.884019        -1.944838
 C        -3.288636         2.689130        -2.346326
 O        -4.343261         2.279627        -2.772797
 H         1.966549         0.622975         0.160361
 H         1.479316         0.385844         1.927389
 H         1.787507        -1.024882         0.712615
 H        -3.169343         0.518046         0.078442
 H        -2.571983        -2.163962         0.005740
 H        -4.214778        -1.239617        -0.290385
 H        -3.318719        -1.809465        -1.630569
 H        -1.493102         0.049478        -2.317593
 H        -3.251226         0.197540        -2.558055
 H        -2.982092         3.717219        -2.367437
