19
Iteration:   931charge 0 multiplicity 1
 C         1.322688        -0.017272         0.836631
 C        -0.005068         0.048574         0.297680
 C        -1.113934        -0.013075        -0.201733
 C        -2.548868        -0.133889        -0.621685
 C        -3.150190        -1.394293        -0.134491
 C        -2.698445         0.375108        -2.222511
 O        -2.077598         1.735720        -2.347090
 C        -3.078729         2.666575        -2.370484
 O        -4.267616         2.420026        -2.122844
 H         2.149632        -0.413379         0.147943
 H         1.557040         1.006590         1.043556
 H         1.444602        -0.555768         1.773714
 H        -3.181614         0.594871        -0.108183
 H        -3.026114        -1.491816         0.966048
 H        -4.252742        -1.407982        -0.292562
 H        -2.711374        -2.318482        -0.551168
 H        -2.110057        -0.208711        -2.940461
 H        -3.721029         0.495981        -2.555994
 H        -2.575355         3.654075        -2.601864
