19
Iteration:  1585charge 0 multiplicity 1
 C         1.367174        -0.000488         0.922219
 C        -0.010925        -0.124053         0.347638
 C        -1.216893        -0.048413         0.078287
 C        -2.554043        -0.036280        -0.543416
 C        -3.080628        -1.382325        -0.506152
 C        -2.412675         0.456222        -2.034328
 O        -2.104023         1.858928        -2.103007
 C        -3.260030         2.662147        -2.305659
 O        -4.390118         2.302989        -2.600242
 H         1.642986         0.968536         0.528973
 H         1.416334        -0.017467         1.999368
 H         2.007138        -0.831717         0.471978
 H        -3.157756         0.744320        -0.014547
 H        -3.215343        -1.774931         0.486211
 H        -3.867655        -1.622743        -1.256977
 H        -2.269383        -2.067139        -0.914280
 H        -1.587973        -0.104981        -2.561736
 H        -3.357583         0.219725        -2.573145
 H        -2.919345         3.802418        -2.052005
