19
Iteration:  4239charge 0 multiplicity 1
 C         1.474258        -1.025031         1.289517
 C         0.230903        -0.573131         0.636195
 C        -0.826127        -0.210726         0.084872
 C        -2.131251         0.333968        -0.448222
 C        -2.823115        -0.733931        -1.396980
 C        -2.146035         1.616787        -1.147154
 O        -3.564960         1.775801        -1.397882
 C        -4.041906         2.057468        -2.614247
 O        -3.608863         2.340057        -3.712723
 H         1.774169        -0.242094         2.058623
 H         1.128518        -1.990316         1.806329
 H         2.368440        -1.092200         0.782480
 H        -2.890809         0.362168         0.395575
 H        -3.341595        -0.191749        -2.132449
 H        -2.021706        -1.375086        -1.809361
 H        -3.531146        -1.084910        -0.701614
 H        -1.979316         2.538164        -0.564967
 H        -1.637343         1.696757        -2.122542
 H        -5.170000         2.158096        -2.439452
