19
Iteration:  2235
 C         0.828819         1.047305        -0.117422
 C        -0.427485         0.375883        -0.125341
 C        -1.515727        -0.230780        -0.027554
 C        -2.917632        -0.508591        -0.336471
 C        -3.110173        -2.010237        -0.631494
 C        -3.305045         0.385532        -1.554250
 O        -3.250034         1.837228        -1.225129
 C        -2.355070         2.580443        -1.863245
 O        -1.791749         2.182257        -2.880283
 H         1.518099         0.845712         0.790438
 H         1.523340         0.571744        -0.932854
 H         0.703508         2.106758        -0.398665
 H        -3.553947        -0.192120         0.541841
 H        -4.013543        -2.544298        -0.282888
 H        -3.123289        -2.145524        -1.727337
 H        -2.189048        -2.435683        -0.226869
 H        -2.749596         0.118117        -2.520676
 H        -4.377603         0.183279        -1.685607
 H        -2.625953         3.725430        -1.612394
