19
Iteration:  3942
 C         1.462611        -0.419943         0.603804
 C         0.067142        -0.416246         0.348837
 C        -1.147764        -0.348215         0.228923
 C        -2.500525         0.029426        -0.297307
 C        -3.039591        -0.913843        -1.345029
 C        -2.260358         1.405302        -0.871464
 O        -3.419557         2.130165        -1.282097
 C        -3.756148         2.236961        -2.562202
 O        -3.069435         1.831287        -3.483237
 H         1.891028        -0.576940        -0.439090
 H         1.747536         0.526352         1.077645
 H         1.883759        -1.083791         1.303404
 H        -3.193099         0.143324         0.493619
 H        -3.518656        -0.226624        -2.117655
 H        -2.124560        -1.361199        -1.742957
 H        -3.829111        -1.515792        -0.802517
 H        -1.879118         2.120306        -0.062846
 H        -1.495733         1.370478        -1.764710
 H        -4.793542         2.546287        -2.596894
