19
Iteration:  4473charge 0 multiplicity 1
 C         1.402539        -0.386211         1.153051
 C         0.198933        -0.277748         0.346425
 C        -0.925926        -0.244861        -0.147778
 C        -2.280473        -0.137033        -0.472962
 C        -3.074113        -1.331250        -1.100178
 C        -2.345276         1.235056        -1.265974
 O        -3.677338         1.573758        -1.479668
 C        -3.835100         2.392241        -2.538506
 O        -2.984768         2.737580        -3.318001
 H         1.947428        -1.222818         0.872263
 H         1.957869         0.562158         1.079646
 H         1.300836        -0.528189         2.261197
 H        -2.839778         0.108683         0.482966
 H        -3.678415        -0.957981        -1.949624
 H        -2.594540        -2.140134        -1.523338
 H        -3.842416        -1.817606        -0.496814
 H        -1.898128         2.025723        -0.624351
 H        -1.811715         1.337441        -2.288781
 H        -4.860909         2.873094        -2.385109
