19
Iteration:  3153
 C         1.157694         0.100004         0.759283
 C        -0.235672        -0.100484         0.400365
 C        -1.442794        -0.004446         0.133649
 C        -2.706435        -0.385864        -0.466516
 C        -2.687969        -1.900695        -0.862414
 C        -2.865899         0.417272        -1.783548
 O        -2.424771         1.859102        -1.487980
 C        -2.972825         2.828802        -2.186528
 O        -3.612381         2.795766        -3.211415
 H         1.285155         0.032037         1.798305
 H         2.041567        -0.391719         0.222632
 H         1.387305         1.107776         0.585998
 H        -3.554628        -0.081876         0.140587
 H        -3.659835        -2.299319        -1.178385
 H        -1.869704        -1.982412        -1.557570
 H        -2.339464        -2.343727         0.069062
 H        -2.129761         0.126356        -2.580623
 H        -3.832606         0.390706        -2.336749
 H        -2.909180         3.752044        -1.536023
