19
Iteration:  2685charge 0 multiplicity 1
 C         1.002974         0.476903         0.374750
 C        -0.379084         0.055844         0.272297
 C        -1.507284        -0.238504         0.204457
 C        -2.822445        -0.449866        -0.427870
 C        -2.825618        -2.004013        -0.823958
 C        -2.917114         0.448396        -1.683488
 O        -2.577775         1.852510        -1.175505
 C        -2.676158         2.768082        -2.135034
 O        -3.137856         2.686777        -3.253220
 H         1.584844         0.577544         1.313360
 H         1.675627        -0.221676        -0.087788
 H         1.182973         1.413494        -0.368707
 H        -3.739261        -0.197543         0.152572
 H        -3.889297        -2.423060        -1.039335
 H        -2.235705        -1.989033        -1.780356
 H        -2.327197        -2.548491         0.051178
 H        -2.154103         0.135107        -2.418377
 H        -3.883685         0.375726        -2.229995
 H        -2.480110         3.803993        -1.722002
