19
Iteration:  4595
 C         1.418956        -0.961940         0.776966
 C         0.105988        -0.213189         0.683557
 C        -1.045485         0.099336         0.462878
 C        -2.335036         0.189034        -0.343857
 C        -2.787190        -1.172279        -0.955515
 C        -2.243554         1.217134        -1.341949
 O        -3.516427         1.159032        -2.058735
 C        -3.881798         2.185481        -2.803134
 O        -3.292754         3.244680        -2.982604
 H         1.407047        -1.693631         1.547131
 H         1.670153        -1.356677        -0.171618
 H         2.272087        -0.244718         1.035540
 H        -3.071157         0.553514         0.388983
 H        -3.806253        -1.391239        -0.709780
 H        -2.703391        -1.300285        -2.006235
 H        -2.310112        -2.006306        -0.527733
 H        -2.328240         2.145695        -0.815168
 H        -1.404489         1.131248        -2.096137
 H        -4.798742         1.823737        -3.365124
