19
Iteration:  1415charge 0 multiplicity 1
 C         1.173571         0.315201         1.207397
 C        -0.078413         0.247084         0.263424
 C        -1.222762         0.079112        -0.223420
 C        -2.527692        -0.142219        -0.872476
 C        -3.146445        -1.571302        -0.547154
 C        -2.674666         0.182336        -2.385641
 O        -2.358622         1.508078        -2.784227
 C        -2.915852         2.545096        -2.162762
 O        -3.868414         2.590354        -1.431219
 H         0.953151        -0.234125         2.173018
 H         2.033646        -0.069787         0.573376
 H         1.235749         1.339766         1.389062
 H        -3.163766         0.575362        -0.351916
 H        -2.422523        -2.079497         0.137313
 H        -4.096681        -1.508515         0.026588
 H        -3.418028        -2.259746        -1.378524
 H        -1.991357        -0.418653        -2.984005
 H        -3.692696        -0.049175        -2.662954
 H        -2.313861         3.496939        -2.457532
