19
Iteration:  4979
 C         1.228128         0.155231         0.989694
 C        -0.094203        -0.111583         0.518200
 C        -1.077711        -0.433328        -0.177667
 C        -2.431546        -0.056430        -0.716079
 C        -3.287376        -1.232547        -0.748786
 C        -2.183526         0.530242        -2.085989
 O        -3.266454         1.141058        -2.632455
 C        -3.653821         2.433638        -2.321077
 O        -2.916868         3.141789        -1.684250
 H         2.100829        -0.565291         0.749187
 H         1.575576         1.102101         0.698950
 H         1.244302         0.084729         2.131289
 H        -2.891857         0.712968         0.060394
 H        -4.413134        -0.983834        -0.790608
 H        -3.082555        -1.773121        -1.741948
 H        -3.034186        -1.947010         0.069409
 H        -1.308029         1.316671        -1.841484
 H        -1.747421        -0.270458        -2.745573
 H        -4.729286         2.598485        -2.650004
