19
Iteration:  2648
 C         1.044391         0.507906         0.198832
 C        -0.325253         0.098627         0.316311
 C        -1.553347        -0.199510         0.319746
 C        -2.758037        -0.497751        -0.393300
 C        -2.976262        -2.024707        -0.799964
 C        -2.696145         0.364879        -1.694901
 O        -2.776277         1.790174        -1.216546
 C        -2.793532         2.834586        -2.078067
 O        -2.969895         2.728886        -3.273880
 H         1.709481         0.206144         1.044799
 H         1.261648         0.048120        -0.836303
 H         1.068320         1.619868         0.078556
 H        -3.539390        -0.081139         0.294050
 H        -3.864060        -1.986367        -1.474261
 H        -2.023245        -2.404590        -1.370902
 H        -3.141902        -2.753423         0.073230
 H        -1.688443         0.250364        -2.127050
 H        -3.515583         0.262099        -2.450710
 H        -2.840904         3.762076        -1.424158
