19
Iteration:  2910charge 0 multiplicity 1
 C         1.328965        -0.229891         0.766413
 C        -0.062950        -0.265576         0.623860
 C        -1.242684        -0.096401         0.250942
 C        -2.576953        -0.222555        -0.506389
 C        -2.713947        -1.753232        -0.667085
 C        -2.576646         0.594957        -1.888322
 O        -2.861184         1.937518        -1.393088
 C        -3.475419         2.807569        -2.307584
 O        -3.520384         2.812225        -3.527729
 H         1.975490         0.023879        -0.099169
 H         1.530380         0.516095         1.629389
 H         1.903755        -1.009226         1.205735
 H        -3.409781         0.288952         0.013772
 H        -3.369558        -1.992531        -1.471021
 H        -1.797022        -2.309789        -0.858259
 H        -3.123460        -2.180055         0.265871
 H        -1.631189         0.747064        -2.376247
 H        -3.458129         0.408622        -2.608004
 H        -3.909328         3.737439        -1.867361
