19
Iteration:  2726
 C         1.184588         0.423477         0.733913
 C        -0.180644         0.077358         0.306004
 C        -1.294450        -0.183282        -0.054130
 C        -2.740512        -0.483278        -0.440328
 C        -2.938868        -1.919424        -0.984305
 C        -3.243931         0.511705        -1.580100
 O        -2.519936         1.763778        -1.232757
 C        -2.745164         2.755511        -2.198489
 O        -3.257814         2.631997        -3.304060
 H         1.221050         1.209620         1.471359
 H         1.781331        -0.530068         0.771978
 H         1.444501         1.123888        -0.070111
 H        -3.215931        -0.201483         0.534676
 H        -3.994188        -1.910630        -1.342312
 H        -2.210880        -1.940821        -1.846158
 H        -2.777518        -2.636259        -0.108262
 H        -3.030220         0.224686        -2.604933
 H        -4.348760         0.781347        -1.458241
 H        -2.124341         3.591609        -1.778468
