19
Iteration:   779charge 0 multiplicity 1
 C         1.441284        -0.234100         0.668804
 C         0.100147        -0.126835         0.141350
 C        -1.117649         0.043042         0.162951
 C        -2.442615         0.081992        -0.328746
 C        -3.073137        -1.390206        -0.108094
 C        -2.598509         0.385439        -1.867188
 O        -2.274646         1.820370        -2.124003
 C        -3.269074         2.695404        -2.359583
 O        -4.349840         2.450523        -2.915812
 H         1.682403         0.360506         1.485803
 H         1.776146        -1.275907         0.790242
 H         2.197674        -0.032559        -0.237898
 H        -3.075976         0.849864         0.231015
 H        -3.290640        -1.469352         0.939899
 H        -4.027921        -1.526290        -0.622007
 H        -2.541185        -2.240793        -0.486054
 H        -1.949472        -0.236514        -2.508487
 H        -3.631031         0.326059        -2.188761
 H        -2.863664         3.690034        -2.128897
