19
Iteration:   582
 C         1.548490        -0.089893         0.292404
 C         0.097435        -0.100046         0.018251
 C        -1.134881         0.111800         0.098742
 C        -2.610696        -0.060360        -0.140723
 C        -3.143713        -1.510587        -0.030394
 C        -2.955084         0.519158        -1.596178
 O        -2.547158         1.868397        -1.577022
 C        -3.090628         2.676461        -2.475681
 O        -3.810006         2.344803        -3.406620
 H         2.226644        -0.544459        -0.377677
 H         1.831909         0.901781         0.671259
 H         1.721800        -0.663282         1.316471
 H        -3.083403         0.481983         0.662965
 H        -2.737759        -2.122948         0.808720
 H        -4.232240        -1.463823         0.238985
 H        -2.925612        -2.201358        -0.878261
 H        -2.255078        -0.085497        -2.282737
 H        -4.037490         0.384610        -1.846276
 H        -2.549140         3.579961        -2.225363
