19
Iteration:  2927charge 0 multiplicity 1
 C         1.381966        -0.215376         0.846190
 C        -0.081161        -0.255083         0.535701
 C        -1.312459        -0.149715         0.222855
 C        -2.491310        -0.214739        -0.568577
 C        -2.771205        -1.788916        -0.655931
 C        -2.511754         0.648359        -1.841105
 O        -2.889022         2.059924        -1.445498
 C        -3.587167         2.839337        -2.290801
 O        -3.445211         2.731281        -3.482412
 H         1.845565        -0.259611        -0.177528
 H         1.819270         0.653753         1.228268
 H         1.673569        -1.242690         1.330628
 H        -3.307199         0.005957         0.137992
 H        -3.479688        -2.025089        -1.539667
 H        -1.749685        -2.232737        -0.723002
 H        -3.077256        -2.038136         0.392410
 H        -1.482315         0.675436        -2.355488
 H        -3.328292         0.214861        -2.344492
 H        -4.317192         3.475054        -1.721773
