19
Iteration:  3372charge 0 multiplicity 1
 C         1.164510         0.121883         1.033463
 C        -0.175515        -0.087945         0.475942
 C        -1.316906        -0.095313        -0.037457
 C        -2.656967        -0.333569        -0.548086
 C        -2.682790        -1.783945        -0.950612
 C        -2.989820         0.546928        -1.781170
 O        -2.264870         1.758962        -1.595794
 C        -2.915948         2.793434        -2.306246
 O        -3.892669         2.735753        -3.050279
 H         1.915496         0.751900         0.510456
 H         1.058226         0.522495         2.071957
 H         1.581758        -0.864708         1.118344
 H        -3.407394        -0.030711         0.200140
 H        -3.542195        -1.828465        -1.679379
 H        -1.713390        -2.054667        -1.433836
 H        -2.681922        -2.360987         0.018683
 H        -2.660726         0.019496        -2.750197
 H        -4.036828         0.572422        -1.906816
 H        -2.333656         3.660008        -2.076119
