19
Iteration:   524
 C         1.502749         0.007956         0.028458
 C         0.042993        -0.002660         0.224877
 C        -1.190083        -0.078679         0.126222
 C        -2.579981        -0.156058        -0.170456
 C        -3.149885        -1.622194         0.117200
 C        -2.983565         0.474087        -1.543042
 O        -2.721836         1.983004        -1.412334
 C        -3.030066         2.745082        -2.516418
 O        -3.508784         2.313425        -3.545571
 H         1.760649         0.448897        -0.835356
 H         2.051164         0.607030         0.759981
 H         1.770217        -1.098818        -0.071435
 H        -3.141297         0.478874         0.576433
 H        -2.828358        -1.751137         1.161775
 H        -4.246166        -1.665638         0.039575
 H        -2.713848        -2.396037        -0.550823
 H        -2.604924         0.171109        -2.498350
 H        -4.070085         0.464996        -1.665708
 H        -2.849533         3.819532        -2.433170
