19
Iteration:  2211charge 0 multiplicity 1
 C         0.870392         0.959662        -0.227874
 C        -0.418255         0.429090         0.076505
 C        -1.530157         0.052546        -0.083809
 C        -2.925517        -0.445716        -0.338062
 C        -3.025638        -1.932191        -0.795492
 C        -3.435905         0.401332        -1.524455
 O        -3.316304         1.757526        -1.141577
 C        -2.369534         2.434181        -1.877401
 O        -1.722155         2.068144        -2.823798
 H         1.752512         0.603317         0.363567
 H         1.331284         0.726539        -1.208846
 H         0.779979         2.100395        -0.180964
 H        -3.620419        -0.282316         0.537997
 H        -4.083507        -2.236764        -0.961557
 H        -2.546370        -2.159242        -1.741811
 H        -2.574807        -2.440457         0.024813
 H        -2.729909         0.237961        -2.392690
 H        -4.424133         0.023798        -1.812203
 H        -2.440494         3.646260        -1.538063
