19
Iteration:  2823charge 0 multiplicity 1
 C         1.190025         0.084467         1.098503
 C        -0.031910        -0.121982         0.321199
 C        -1.125236        -0.094732        -0.302380
 C        -2.583782        -0.289672        -0.506306
 C        -2.875873        -1.794606        -0.925766
 C        -3.085455         0.651004        -1.548035
 O        -2.589061         1.982353        -1.278311
 C        -3.045742         2.794326        -2.305952
 O        -3.491894         2.469572        -3.390750
 H         1.615737         1.099775         0.879370
 H         1.012257        -0.324362         2.225987
 H         1.855871        -0.538827         0.526989
 H        -3.113408        -0.215732         0.461354
 H        -3.851087        -2.167122        -0.687105
 H        -2.623765        -1.872510        -1.999474
 H        -2.151163        -2.320093        -0.263433
 H        -2.753952         0.356696        -2.538715
 H        -4.205373         0.463730        -1.698771
 H        -3.005647         3.782110        -1.817806
