19
Iteration:  3085charge 0 multiplicity 1
 C         1.263600        -0.211947         0.994681
 C        -0.005160        -0.018110         0.440078
 C        -1.083488         0.020123        -0.072169
 C        -2.483307        -0.278906        -0.602562
 C        -2.769490        -1.786626        -0.780326
 C        -2.862312         0.541138        -1.755559
 O        -2.961012         1.854147        -1.320943
 C        -3.112635         2.841428        -2.289130
 O        -3.608973         2.760718        -3.400273
 H         1.387092        -1.091818         1.625930
 H         2.189930        -0.210187         0.368769
 H         1.388586         0.639510         1.680046
 H        -3.085355        -0.067857         0.260753
 H        -3.760984        -1.925132        -1.272197
 H        -1.988841        -2.319312        -1.414819
 H        -2.797049        -2.321972         0.176525
 H        -2.173803         0.379289        -2.569098
 H        -3.793923         0.221298        -2.324273
 H        -2.843402         3.823702        -1.851679
