19
Iteration:  4884charge 0 multiplicity 1
 C         1.219072        -0.050245         1.180745
 C        -0.070380        -0.146151         0.564893
 C        -1.045759        -0.056753        -0.204307
 C        -2.276825         0.049591        -0.914929
 C        -3.258274        -1.144139        -0.492519
 C        -2.131448         0.490617        -2.457086
 O        -3.429847         1.106777        -2.805032
 C        -3.669474         2.418696        -2.315053
 O        -2.938924         2.940784        -1.460460
 H         2.073230         0.299912         0.506287
 H         1.187180         0.821004         1.915786
 H         1.594003        -0.953405         1.641452
 H        -2.688788         0.946398        -0.435145
 H        -4.225004        -1.074530        -1.120794
 H        -2.933873        -2.137032        -0.435863
 H        -3.418785        -0.884482         0.546250
 H        -1.312205         1.297813        -2.524935
 H        -2.121386        -0.345876        -3.184547
 H        -4.677645         2.746685        -2.631276
