19
Iteration:   227charge 0 multiplicity 1
 C         1.160234         0.483230        -0.956904
 C        -0.288288         0.424255        -0.400873
 C        -1.485858         0.128919        -0.146426
 C        -2.928666        -0.031851         0.031139
 C        -3.307521        -1.545125         0.255470
 C        -3.514272         0.419057        -1.251997
 O        -3.204221         1.749687        -1.221726
 C        -2.498550         2.387584        -2.197794
 O        -1.790009         1.805932        -2.965614
 H         1.439990        -0.449636        -1.263169
 H         1.275360         1.314370        -1.784328
 H         1.797600         0.690272         0.014216
 H        -3.259203         0.513987         0.878154
 H        -2.449793        -1.964961         0.808520
 H        -4.210621        -1.582213         0.922334
 H        -3.424934        -2.118052        -0.692010
 H        -2.996281        -0.070555        -2.124566
 H        -4.615774         0.302530        -1.315401
 H        -2.476972         3.495181        -2.059963
