19
Iteration:  3667charge 0 multiplicity 1
 C         1.489949        -0.759304         0.827816
 C         0.130045        -0.317050         0.647836
 C        -1.002121        -0.113386         0.241450
 C        -2.308145         0.006322        -0.379469
 C        -2.779971        -1.269601        -1.048622
 C        -2.282127         1.153692        -1.437352
 O        -3.519940         2.029473        -1.321156
 C        -3.918319         2.533109        -2.537728
 O        -3.363357         2.399534        -3.599315
 H         1.731042        -1.028383         1.924759
 H         1.585585        -1.667642         0.191594
 H         1.997471         0.041136         0.342642
 H        -3.135353         0.294274         0.314017
 H        -3.329134        -0.981731        -1.914785
 H        -1.902604        -1.918297        -1.185286
 H        -3.441296        -1.835155        -0.409109
 H        -1.401417         1.804680        -1.112132
 H        -2.228855         0.874426        -2.477713
 H        -4.933054         2.984822        -2.346374
