19
Iteration:  3116
 C         1.197427        -0.167456         0.864300
 C        -0.141668         0.216920         0.480106
 C        -1.210361        -0.050726        -0.018447
 C        -2.584670        -0.352562        -0.599769
 C        -2.694387        -1.894671        -0.708679
 C        -2.884187         0.427151        -1.872462
 O        -2.710083         1.857523        -1.441338
 C        -3.080568         2.956305        -2.202093
 O        -3.576456         2.793358        -3.272932
 H         1.224340        -0.953130         1.702540
 H         1.681249        -0.581761         0.067128
 H         1.423491         0.891834         1.246507
 H        -3.322983        -0.119995         0.179454
 H        -3.546113        -2.407302        -1.220678
 H        -1.825722        -2.330542        -1.345969
 H        -2.518364        -2.431812         0.246685
 H        -2.169699         0.039859        -2.575641
 H        -3.971816         0.233179        -2.106474
 H        -2.832933         3.883500        -1.718476
