19
Iteration:  3507charge 0 multiplicity 1
 C         1.193223        -0.239923         1.217254
 C         0.049527        -0.239419         0.353562
 C        -1.039785        -0.277226        -0.192405
 C        -2.374617        -0.181642        -0.624554
 C        -2.964283        -1.665894        -0.709890
 C        -2.354373         0.657341        -1.886617
 O        -2.827453         2.021360        -1.404761
 C        -3.429322         2.873373        -2.246897
 O        -3.832296         2.641021        -3.389643
 H         1.798573        -1.072102         1.205875
 H         1.872031         0.660912         1.274508
 H         0.739412        -0.158671         2.230714
 H        -2.947773         0.364484         0.107465
 H        -3.864405        -2.052782        -1.223388
 H        -2.048975        -2.309546        -0.943061
 H        -3.071080        -1.975508         0.367246
 H        -1.417011         0.969786        -2.364786
 H        -3.072240         0.269306        -2.707289
 H        -3.628214         3.828125        -1.812913
