19
Iteration:  4922
 C         1.180299         0.152286         1.253962
 C         0.098323        -0.136860         0.294101
 C        -0.932239        -0.298875        -0.273509
 C        -2.325945         0.019408        -0.705797
 C        -3.457303        -1.061340        -0.725071
 C        -2.168880         0.465647        -2.236295
 O        -3.414620         1.067985        -2.756362
 C        -3.628379         2.388046        -2.263067
 O        -2.884393         2.972941        -1.506922
 H         2.091844         0.122836         0.691103
 H         1.025570         1.187478         1.595480
 H         1.200118        -0.424807         2.209433
 H        -2.801559         0.861493        -0.093425
 H        -4.353037        -0.500729        -0.910977
 H        -3.248147        -1.824921        -1.593554
 H        -3.524412        -1.583051         0.274467
 H        -1.331142         1.123730        -2.419284
 H        -2.034434        -0.532964        -2.663318
 H        -4.643024         2.789586        -2.640141
