19
Iteration:  3856charge 0 multiplicity 1
 C         1.497764        -0.863753         0.508340
 C         0.105985        -0.416536         0.430642
 C        -1.036832         0.003391         0.305403
 C        -2.431792         0.160755        -0.139948
 C        -2.715573        -0.979898        -1.112018
 C        -2.452183         1.511892        -0.815265
 O        -3.700418         1.966730        -1.470180
 C        -3.878327         2.183768        -2.745099
 O        -3.012304         2.127518        -3.563738
 H         2.206052        -0.238211        -0.024403
 H         1.833228        -0.807923         1.624525
 H         1.482200        -1.890064         0.117529
 H        -3.161420         0.176243         0.706864
 H        -3.771111        -0.886142        -1.477708
 H        -1.986757        -1.192988        -1.879360
 H        -2.743724        -2.017536        -0.733992
 H        -2.192229         2.249927        -0.020866
 H        -1.665091         1.568822        -1.621551
 H        -4.903284         2.560413        -2.970217
