19
Iteration:  1750charge 0 multiplicity 1
 C         1.419900        -0.140370         0.914831
 C         0.049216        -0.024331         0.460155
 C        -1.014232         0.048790        -0.148840
 C        -2.459051        -0.196387        -0.406748
 C        -2.872586        -1.721542        -0.389124
 C        -2.819785         0.526676        -1.784452
 O        -2.704158         2.015047        -1.529297
 C        -3.239639         2.799841        -2.479305
 O        -3.958728         2.436348        -3.381933
 H         1.797913        -1.192516         0.696232
 H         2.226812         0.345644         0.335969
 H         1.683631         0.046115         2.006747
 H        -3.056917         0.279119         0.358858
 H        -3.890064        -1.869932         0.103889
 H        -3.145109        -2.145736        -1.388326
 H        -2.123277        -2.505364        -0.106252
 H        -2.165291         0.399858        -2.688675
 H        -3.866526         0.403239        -2.124328
 H        -2.853853         3.750553        -2.256606
