19
Iteration:  4881charge 0 multiplicity 1
 C         1.238147        -0.054665         1.169005
 C        -0.090808        -0.156091         0.563007
 C        -1.025100        -0.011938        -0.171815
 C        -2.278691         0.053504        -0.929987
 C        -3.273223        -1.157725        -0.473651
 C        -2.149952         0.486811        -2.479662
 O        -3.432360         1.121374        -2.807685
 C        -3.638421         2.410617        -2.318815
 O        -2.960472         2.941232        -1.470802
 H         2.115027         0.304271         0.524943
 H         1.187203         0.666566         1.962621
 H         1.571669        -1.007210         1.682289
 H        -2.679591         0.921140        -0.464414
 H        -4.138919        -1.076244        -1.142848
 H        -2.830562        -2.165410        -0.431917
 H        -3.456349        -0.905064         0.575650
 H        -1.302374         1.318611        -2.413006
 H        -2.127974        -0.345853        -3.208701
 H        -4.658687         2.660873        -2.557466
