19
Iteration:  4759
 C         1.421060        -0.505210         1.013136
 C         0.019359        -0.395208         0.652902
 C        -1.033120        -0.157336         0.159822
 C        -2.319127         0.250847        -0.426980
 C        -3.099905        -1.155797        -0.622121
 C        -2.052469         0.806180        -1.946120
 O        -3.226912         1.102612        -2.669418
 C        -3.933545         2.337285        -2.618838
 O        -3.422607         3.341434        -2.223419
 H         1.695770         0.527303         1.279711
 H         1.620110        -1.183450         1.830388
 H         2.152793        -0.895060         0.186863
 H        -2.853070         0.957375         0.147857
 H        -4.081091        -0.942601        -0.904604
 H        -2.560948        -1.747138        -1.411581
 H        -2.979512        -1.733717         0.312412
 H        -1.499851         1.799255        -1.834595
 H        -1.489284        -0.027490        -2.402459
 H        -4.876112         2.206766        -3.098028
