19
Iteration:  4314charge 0 multiplicity 1
 C         1.391293        -0.691964         1.123573
 C         0.028418        -0.288811         0.609699
 C        -1.062178        -0.158507         0.097458
 C        -2.394726        -0.010610        -0.579559
 C        -2.651059        -1.320467        -1.373110
 C        -2.244699         1.322828        -1.321420
 O        -3.507762         2.015675        -1.301819
 C        -3.865337         2.614217        -2.467258
 O        -3.334859         2.181371        -3.481741
 H         2.109633         0.197916         0.905606
 H         1.587171        -0.960463         2.176135
 H         1.783810        -1.499303         0.488911
 H        -3.181141         0.001541         0.169725
 H        -3.694986        -1.477362        -1.124022
 H        -2.265399        -1.108043        -2.397006
 H        -2.148320        -2.115566        -0.851702
 H        -1.600597         1.954202        -0.812933
 H        -2.023053         1.194218        -2.372803
 H        -4.749905         3.287703        -2.351811
