19
Iteration:   342
 C         1.329967         0.273151        -0.330436
 C        -0.141220         0.369419        -0.387730
 C        -1.274979        -0.049869        -0.218656
 C        -2.726114        -0.130849        -0.013101
 C        -3.256207        -1.591663         0.075634
 C        -3.415595         0.616271        -1.131000
 O        -3.143971         2.005521        -1.159865
 C        -2.666815         2.482778        -2.380580
 O        -2.459480         1.825447        -3.362318
 H         1.765761        -0.094034         0.758802
 H         1.641153        -0.546063        -0.987237
 H         1.919948         1.112924        -0.582698
 H        -2.954221         0.426430         0.989759
 H        -2.807715        -2.042474         0.976478
 H        -4.304381        -1.741149         0.237975
 H        -2.785992        -2.162008        -0.733486
 H        -3.149005         0.161379        -2.122659
 H        -4.482334         0.532586        -0.956082
 H        -2.577209         3.649681        -2.236552
