19
Iteration:  2389
 C         1.239128         0.455113         0.279818
 C        -0.252206         0.231945         0.204320
 C        -1.416254         0.073317        -0.016535
 C        -2.823629        -0.462161        -0.369616
 C        -2.877197        -1.988421        -0.694568
 C        -3.387399         0.430576        -1.536340
 O        -3.415030         1.880408        -1.310390
 C        -2.859403         2.703374        -2.229098
 O        -2.070229         2.416442        -3.104816
 H         1.651299         1.383652        -0.025777
 H         1.595938         0.308267         1.343611
 H         1.943170        -0.238794        -0.245773
 H        -3.427807        -0.288799         0.556139
 H        -2.015640        -2.328353        -0.231907
 H        -3.668988        -2.583407        -0.302273
 H        -2.944789        -2.123930        -1.754307
 H        -2.768827         0.193978        -2.383166
 H        -4.421192         0.070586        -1.609718
 H        -2.860249         3.770818        -1.984808
