19
Iteration:  1876charge 0 multiplicity 1
 C         1.325443         0.202733         0.544070
 C        -0.033124        -0.024348         0.271974
 C        -1.224674         0.032428         0.066830
 C        -2.585813        -0.225958        -0.304043
 C        -2.956647        -1.720128        -0.684156
 C        -3.008832         0.481293        -1.551428
 O        -2.946781         1.908999        -1.263646
 C        -3.016921         2.749522        -2.353908
 O        -3.226379         2.310279        -3.479377
 H         1.360939         0.494855         1.628295
 H         2.006522        -0.618668         0.212823
 H         1.891171         1.068036         0.088772
 H        -3.236290         0.081904         0.578743
 H        -3.110640        -2.089863        -1.709406
 H        -2.232968        -2.410455        -0.175063
 H        -3.900746        -1.965287        -0.153938
 H        -2.373443         0.213589        -2.397813
 H        -4.051513         0.266432        -1.756187
 H        -2.793972         3.737552        -1.937466
