19
Iteration:  4742
 C         1.501317        -0.515544         1.062403
 C         0.089788        -0.493118         0.593937
 C        -1.022147        -0.121639         0.208474
 C        -2.257481         0.105369        -0.530263
 C        -3.196805        -1.034895        -0.677394
 C        -1.958032         0.875867        -1.770914
 O        -3.294297         1.088485        -2.544328
 C        -3.864854         2.289302        -2.662133
 O        -3.531520         3.393579        -2.347950
 H         1.845260         0.457594         1.515704
 H         1.709040        -1.330893         1.792736
 H         2.039934        -0.676343         0.166498
 H        -2.879727         0.791156         0.167661
 H        -4.137479        -0.804872        -1.316002
 H        -2.801335        -1.871048        -1.257153
 H        -3.408556        -1.575790         0.261868
 H        -1.489850         1.898513        -1.662980
 H        -1.502721         0.321465        -2.588878
 H        -4.897418         2.046659        -3.129063
