19
Iteration:  3472charge 0 multiplicity 1
 C         1.312080        -0.234753         1.185787
 C        -0.032759        -0.207976         0.613378
 C        -1.109485        -0.107185         0.018331
 C        -2.460397        -0.221550        -0.692561
 C        -2.872569        -1.791432        -0.861000
 C        -2.621609         0.601008        -1.888794
 O        -2.592908         2.055616        -1.494708
 C        -3.339479         2.872132        -2.299472
 O        -3.899022         2.662065        -3.353480
 H         2.077035        -0.833648         0.734702
 H         1.722524         0.842849         1.276065
 H         1.158268        -0.663856         2.161009
 H        -3.124534         0.346673        -0.030544
 H        -3.920031        -1.984222        -1.233395
 H        -2.081873        -2.230695        -1.533770
 H        -2.740130        -2.094275         0.196209
 H        -1.930487         0.256698        -2.724897
 H        -3.641367         0.437711        -2.131023
 H        -3.385030         3.763974        -1.694973
