19
Iteration:  4215charge 0 multiplicity 1
 C         1.335257        -1.126466         1.250127
 C         0.157056        -0.543541         0.660923
 C        -0.723905        -0.054416         0.027626
 C        -2.041720         0.342399        -0.424990
 C        -2.734122        -0.852788        -1.337093
 C        -2.102735         1.714672        -1.192967
 O        -3.644076         1.836420        -1.432145
 C        -4.176974         2.047843        -2.609893
 O        -3.525073         2.273177        -3.619824
 H         1.649050        -0.580184         2.186417
 H         1.279530        -2.196903         1.368170
 H         2.164359        -0.809943         0.704832
 H        -2.679671         0.358300         0.489406
 H        -2.993420        -0.154737        -2.169794
 H        -2.047821        -1.602586        -1.602633
 H        -3.646213        -1.047394        -0.804238
 H        -1.965205         2.594264        -0.691929
 H        -1.552412         1.760664        -2.171999
 H        -5.298741         1.814405        -2.605938
