19
Iteration:  3016charge 0 multiplicity 1
 C         1.436909        -0.198147         1.081444
 C         0.091580        -0.302179         0.542262
 C        -0.969406        -0.244440        -0.156090
 C        -2.398535        -0.284904        -0.427598
 C        -2.940890        -1.625094        -0.965432
 C        -2.824157         0.778662        -1.652242
 O        -3.055403         2.181253        -1.285082
 C        -3.516869         2.881092        -2.377822
 O        -3.398295         2.439362        -3.485782
 H         2.083974        -1.122593         0.948667
 H         1.897591         0.622054         0.621506
 H         1.142997         0.061896         2.170505
 H        -2.943566         0.072429         0.480777
 H        -4.039084        -1.818506        -0.810806
 H        -2.618683        -1.864243        -2.024320
 H        -2.496311        -2.572722        -0.457602
 H        -1.933617         0.804972        -2.336979
 H        -3.514791         0.298595        -2.347222
 H        -4.084947         3.771121        -2.081408
