19
Iteration:  2613charge 0 multiplicity 1
 C         1.088395         0.546397         0.300099
 C        -0.248436         0.072660         0.333659
 C        -1.352093        -0.279677         0.112837
 C        -2.702657        -0.451649        -0.387855
 C        -3.066605        -1.924478        -0.733458
 C        -2.846341         0.422733        -1.728401
 O        -2.858490         1.774341        -1.201376
 C        -3.021852         2.794606        -2.076315
 O        -2.750965         2.678163        -3.241848
 H         1.893142        -0.134895         0.663529
 H         1.458880         0.501640        -0.869429
 H         1.312958         1.543019         0.676054
 H        -3.477204        -0.058789         0.337140
 H        -3.669415        -2.013515        -1.646153
 H        -2.163355        -2.503705        -1.090994
 H        -3.634728        -2.496965         0.009421
 H        -1.983664         0.187893        -2.443896
 H        -3.749222         0.164940        -2.312112
 H        -3.642455         3.639367        -1.692508
