19
Iteration:  4546charge 0 multiplicity 1
 C         1.490196        -0.715994         0.865923
 C         0.125123        -0.381783         0.613605
 C        -1.056781        -0.070358         0.357731
 C        -2.374529         0.073454        -0.295598
 C        -2.727858        -1.255096        -1.000626
 C        -2.346322         1.247608        -1.335569
 O        -3.691974         1.330053        -1.803268
 C        -3.907370         2.368556        -2.704866
 O        -3.107451         3.099184        -3.266365
 H         1.439341        -1.834751         1.172442
 H         2.140729        -0.539105        -0.089579
 H         2.036239        -0.236373         1.662692
 H        -3.145050         0.204509         0.459636
 H        -3.819037        -1.508505        -1.107961
 H        -2.303460        -1.233270        -2.075096
 H        -2.412891        -2.253008        -0.582001
 H        -2.110617         2.300007        -1.025378
 H        -1.718798         0.910933        -2.128756
 H        -4.983820         2.365519        -2.815067
