19
Iteration:   450
 C         1.475504         0.120682        -0.012762
 C         0.033609         0.085326        -0.209582
 C        -1.205801         0.029650        -0.058637
 C        -2.666191        -0.133177        -0.041798
 C        -3.220128        -1.660837        -0.008717
 C        -3.185963         0.567997        -1.179858
 O        -2.881530         2.073056        -1.266115
 C        -2.878075         2.631654        -2.487421
 O        -3.114366         2.024494        -3.542230
 H         1.951771         1.085452         0.317390
 H         1.654770        -0.554242         0.878917
 H         1.963142        -0.420930        -0.893905
 H        -3.109450         0.313081         0.814330
 H        -2.980295        -2.038142         1.006042
 H        -4.269747        -1.688201        -0.260775
 H        -2.744153        -2.294459        -0.790514
 H        -2.990760         0.176768        -2.198657
 H        -4.272792         0.657752        -1.124322
 H        -2.711792         3.736446        -2.474490
