19
Iteration:  1070charge 0 multiplicity 1
 C         1.192454         0.327927         0.897203
 C        -0.104984         0.312912         0.127044
 C        -1.266810         0.194074        -0.227060
 C        -2.691122        -0.179872        -0.720067
 C        -3.134324        -1.584550        -0.494485
 C        -2.766506         0.163842        -2.181587
 O        -2.311532         1.376516        -2.710997
 C        -2.828236         2.519148        -2.194186
 O        -3.746441         2.642973        -1.431898
 H         1.016733         0.239257         2.025230
 H         1.944649        -0.403711         0.589881
 H         1.536980         1.489115         0.759588
 H        -3.401009         0.492495        -0.196954
 H        -3.979585        -1.558829         0.189131
 H        -3.662402        -1.915177        -1.382313
 H        -2.405615        -2.283737        -0.078983
 H        -2.073081        -0.520109        -2.667008
 H        -3.730110        -0.095863        -2.582513
 H        -2.336700         3.432361        -2.479272
