19
Iteration:  1064charge 0 multiplicity 1
 C         1.209328         0.333493         0.928096
 C        -0.117684         0.280208         0.166361
 C        -1.275214         0.220877        -0.240331
 C        -2.636557        -0.169530        -0.735932
 C        -3.147084        -1.612959        -0.469139
 C        -2.781442         0.121898        -2.207347
 O        -2.284397         1.444487        -2.687480
 C        -2.858515         2.496139        -2.227051
 O        -3.772069         2.677565        -1.430792
 H         1.281470        -0.002041         1.983825
 H         1.907435        -0.383151         0.440665
 H         1.575230         1.260916         0.836187
 H        -3.432941         0.462304        -0.330644
 H        -3.945243        -1.633020         0.319087
 H        -3.561067        -1.953614        -1.462377
 H        -2.340196        -2.172411         0.027238
 H        -2.194569        -0.651503        -2.750510
 H        -3.851744        -0.083672        -2.507440
 H        -2.461400         3.397223        -2.862988
