19
Iteration:   557charge 0 multiplicity 1
 C         1.462269        -0.041735         0.161789
 C         0.019158        -0.046047         0.081931
 C        -1.179543         0.064912         0.081368
 C        -2.590109        -0.043900        -0.068718
 C        -3.134088        -1.480929        -0.017212
 C        -2.856627         0.349633        -1.501162
 O        -2.606145         1.855926        -1.485934
 C        -3.095921         2.678836        -2.505517
 O        -3.675741         2.405464        -3.516863
 H         1.945935        -0.157467        -0.733188
 H         1.825956         0.797094         0.731699
 H         1.819340        -1.009243         0.748653
 H        -3.113792         0.668925         0.661792
 H        -2.658215        -2.209013         0.671486
 H        -4.161398        -1.500754         0.312308
 H        -2.861261        -2.007855        -0.955074
 H        -2.291346        -0.201771        -2.245195
 H        -3.943035         0.211881        -1.566005
 H        -2.775217         3.693856        -2.021482
