19
Iteration:  2375
 C         1.187220         0.535943         0.315092
 C        -0.236089         0.242915         0.041627
 C        -1.404794         0.029609        -0.033919
 C        -2.822058        -0.368055        -0.313613
 C        -2.962564        -1.953008        -0.669145
 C        -3.351767         0.316329        -1.581228
 O        -3.342288         1.794611        -1.297501
 C        -2.746685         2.700580        -2.126803
 O        -2.073459         2.421645        -3.095339
 H         1.136498         1.654025         0.225673
 H         1.532579         0.364712         1.332947
 H         1.766343        -0.125205        -0.494362
 H        -3.512026        -0.116059         0.496774
 H        -2.110426        -2.614663        -0.350714
 H        -3.905527        -2.299583        -0.212419
 H        -2.980166        -2.080662        -1.767943
 H        -2.751444         0.139699        -2.531078
 H        -4.400878         0.185523        -1.797992
 H        -3.274749         3.613744        -1.822753
