19
Iteration:  4494
 C         1.460188        -0.488170         1.069603
 C         0.162430        -0.352522         0.451940
 C        -0.870725        -0.308536        -0.138329
 C        -2.320709        -0.022627        -0.404458
 C        -2.906581        -1.364593        -1.024591
 C        -2.389969         1.203557        -1.195518
 O        -3.807297         1.609904        -1.581406
 C        -3.926452         2.472785        -2.676664
 O        -2.964568         2.847486        -3.291870
 H         1.840144        -1.466260         1.022071
 H         2.134213         0.374798         0.843612
 H         1.347424        -0.342432         2.174212
 H        -2.870485         0.175310         0.547050
 H        -3.593433        -1.334816        -1.917279
 H        -2.121856        -2.016537        -1.325290
 H        -3.403216        -1.963638        -0.227025
 H        -1.930444         2.072009        -0.716575
 H        -1.742766         1.200509        -2.137441
 H        -5.042600         2.537438        -2.920948
