19
Iteration:  2875charge 0 multiplicity 1
 C         1.384384        -0.189968         0.884185
 C        -0.086154        -0.030392         0.537487
 C        -1.213285        -0.065511         0.137299
 C        -2.564430        -0.261906        -0.449171
 C        -2.803072        -1.786267        -0.812428
 C        -2.711049         0.528844        -1.824942
 O        -2.921961         1.907855        -1.374941
 C        -3.161200         2.882660        -2.335521
 O        -3.607873         2.705454        -3.452906
 H         2.029759         0.541629         0.331277
 H         1.441419         0.204935         1.881660
 H         1.615321        -1.266399         0.812609
 H        -3.374083        -0.059378         0.264770
 H        -3.825046        -1.832423        -1.204053
 H        -2.028995        -2.012511        -1.564403
 H        -2.682338        -2.411053         0.119196
 H        -1.761107         0.505053        -2.430903
 H        -3.460480         0.003962        -2.430717
 H        -2.853915         3.831555        -1.812686
