19
Iteration:  2131
 C         1.073241         0.851880        -0.047784
 C        -0.337154         0.391845        -0.219268
 C        -1.578961         0.272780        -0.228989
 C        -2.871395        -0.360283        -0.438803
 C        -2.782916        -1.871434        -0.797973
 C        -3.712427         0.436729        -1.387387
 O        -3.486728         1.879895        -1.203628
 C        -2.486760         2.387085        -1.945186
 O        -1.668685         1.805088        -2.622079
 H         1.662699         0.047222        -0.422647
 H         1.210087         1.719269        -0.636277
 H         1.454238         1.107411         1.039356
 H        -3.348203        -0.296409         0.560171
 H        -2.638962        -1.875538        -1.859992
 H        -1.981736        -2.382679        -0.250735
 H        -3.762852        -2.379201        -0.635406
 H        -3.384693         0.255927        -2.385760
 H        -4.769033         0.199357        -1.230752
 H        -2.788285         3.558527        -1.791842
