19
Iteration:  3892
 C         1.388910        -0.625071         0.375006
 C         0.013912        -0.390319         0.592477
 C        -1.166770        -0.251776         0.436542
 C        -2.330356         0.165714        -0.269350
 C        -2.802969        -0.969746        -1.242225
 C        -2.226144         1.562686        -0.890082
 O        -3.613524         1.989614        -1.352397
 C        -3.884332         2.083732        -2.667190
 O        -3.006717         2.039255        -3.516402
 H         1.695025        -0.269366        -0.579261
 H         2.022333        -0.295570         1.252195
 H         1.542765        -1.784855         0.392769
 H        -3.206374         0.229795         0.470970
 H        -3.171834        -0.324597        -2.039468
 H        -2.008798        -1.488012        -1.726562
 H        -3.589582        -1.462304        -0.749477
 H        -1.990384         2.322469        -0.253317
 H        -1.539938         1.513747        -1.718179
 H        -4.969985         2.409766        -2.795479
