19
Iteration:  3801charge 0 multiplicity 1
 C         1.413226        -0.958967         0.840556
 C         0.235578        -0.406169         0.370903
 C        -0.788757         0.039213        -0.065448
 C        -2.183964         0.236794        -0.307886
 C        -2.985611        -0.899339        -0.992055
 C        -2.444423         1.646583        -0.908119
 O        -3.895964         1.733394        -1.454449
 C        -3.914716         2.098532        -2.749509
 O        -2.952147         2.255500        -3.452609
 H         2.325169        -0.367430         0.887537
 H         1.326044        -1.769170         1.671433
 H         1.822291        -1.654111         0.058879
 H        -2.629990         0.298041         0.733991
 H        -3.862402        -1.282386        -0.473510
 H        -3.233523        -0.419128        -1.952444
 H        -2.416095        -1.839289        -1.222164
 H        -2.091865         2.420296        -0.217396
 H        -1.875953         1.670811        -1.844389
 H        -5.003910         2.266090        -3.031920
