19
Iteration:  4022
 C         1.421263        -0.489994         0.960592
 C         0.155033        -0.310371         0.261475
 C        -0.991987        -0.390568        -0.090667
 C        -2.305791         0.029460        -0.459153
 C        -3.208788        -0.911150        -1.337330
 C        -2.240849         1.470963        -0.965201
 O        -3.462620         2.204574        -1.150700
 C        -3.766606         2.258495        -2.546277
 O        -3.186205         1.709511        -3.496200
 H         1.941926        -1.365381         0.936918
 H         2.230127         0.272750         0.651793
 H         1.195051        -0.413646         2.063185
 H        -2.840510         0.072044         0.496406
 H        -3.949777        -1.107150        -0.506339
 H        -3.576765        -0.373564        -2.252889
 H        -2.725719        -1.798159        -1.708713
 H        -1.623445         2.067696        -0.299913
 H        -1.625226         1.435193        -1.938263
 H        -4.623099         2.910765        -2.612334
