19
Iteration:  3447charge 0 multiplicity 1
 C         1.256951        -0.173819         1.117885
 C        -0.088444        -0.161363         0.711060
 C        -1.157082        -0.040423         0.067438
 C        -2.496852        -0.326101        -0.491569
 C        -2.732094        -1.621612        -1.026808
 C        -2.835693         0.556681        -1.824724
 O        -2.523095         1.955602        -1.647624
 C        -3.166477         2.851982        -2.314686
 O        -3.937691         2.628429        -3.259395
 H         2.006564        -0.669088         0.337291
 H         1.683831         0.769996         1.403670
 H         1.266197        -0.963564         1.909686
 H        -3.164880         0.035217         0.362530
 H        -3.816319        -1.567771        -1.216956
 H        -2.189838        -1.730097        -1.943172
 H        -2.486563        -2.336716        -0.227876
 H        -2.020950         0.107591        -2.393961
 H        -3.755509         0.393085        -2.300427
 H        -2.744828         3.837519        -1.919014
