19
Iteration:   413charge 0 multiplicity 1
 C         1.391519         0.171903        -0.109631
 C        -0.068880         0.052272        -0.030822
 C        -1.244488        -0.027622        -0.168512
 C        -2.694901        -0.088414        -0.134097
 C        -3.064142        -1.535554         0.003936
 C        -3.392234         0.618463        -1.147632
 O        -2.970256         2.024397        -1.240016
 C        -2.750420         2.557975        -2.454916
 O        -2.935044         1.988081        -3.534601
 H         1.937264         0.879967         0.489286
 H         1.809386        -0.834489         0.288045
 H         1.752688         0.333536        -1.268480
 H        -2.926121         0.516611         0.767775
 H        -2.278234        -2.146301         0.472596
 H        -3.997385        -1.791087         0.587166
 H        -3.088633        -1.959839        -1.015390
 H        -3.336092         0.100851        -2.092124
 H        -4.433900         0.452592        -0.708266
 H        -2.283137         3.488358        -2.270769
