19
Iteration:  2303charge 0 multiplicity 1
 C         0.950049         1.048372         0.149268
 C        -0.296148         0.239443        -0.030786
 C        -1.326966        -0.320675        -0.298819
 C        -2.755021        -0.496776        -0.476534
 C        -3.326705        -1.931753        -0.432940
 C        -3.328861         0.301783        -1.659467
 O        -3.219411         1.672401        -1.183740
 C        -2.478572         2.616691        -1.937938
 O        -1.933634         2.460009        -3.021697
 H         0.799301         1.681043         1.014358
 H         1.832479         0.324483         0.412704
 H         1.116701         1.395950        -0.827957
 H        -3.189927         0.140072         0.331647
 H        -3.715467        -2.173183         0.553630
 H        -4.195848        -2.014961        -1.140554
 H        -2.490640        -2.643481        -0.723808
 H        -2.871250         0.272003        -2.646009
 H        -4.452917         0.129158        -1.724519
 H        -2.815274         3.504162        -1.342127
