19
Iteration:  1176
 C         0.988995         0.874999         0.528568
 C        -0.344734         0.365336         0.039222
 C        -1.457267        -0.142347        -0.068420
 C        -2.764220        -0.356545        -0.626363
 C        -3.316618        -1.791385        -0.716029
 C        -2.727864         0.118719        -2.141127
 O        -2.077025         1.367379        -2.579415
 C        -2.515493         2.512823        -1.982922
 O        -3.557623         2.717906        -1.344164
 H         0.916814         1.962917         0.436708
 H         1.237608         0.732844         1.644273
 H         1.853066         0.524585         0.001366
 H        -3.387730         0.327173        -0.001795
 H        -2.555286        -2.340134        -0.148311
 H        -4.282220        -1.826127        -0.181236
 H        -3.598603        -2.346500        -1.663063
 H        -2.069719        -0.586431        -2.723711
 H        -3.796058         0.047865        -2.540992
 H        -1.720652         3.383342        -2.055145
