19
Iteration:  4916
 C         1.190698         0.132189         1.224396
 C         0.053247        -0.110631         0.382875
 C        -0.980673        -0.328780        -0.317984
 C        -2.308483         0.060293        -0.699299
 C        -3.373220        -1.048218        -0.700206
 C        -2.235276         0.454912        -2.244538
 O        -3.390487         1.055231        -2.763313
 C        -3.608070         2.421708        -2.284759
 O        -2.902092         2.952042        -1.491377
 H         2.234897         0.141628         0.736808
 H         0.960536         1.145593         1.618615
 H         1.191237        -0.575455         2.058024
 H        -2.600719         0.967623        -0.222334
 H        -4.425684        -0.663465        -0.923728
 H        -3.157988        -1.815969        -1.355134
 H        -3.626519        -1.489987         0.246765
 H        -1.370962         1.159587        -2.608555
 H        -1.967372        -0.392586        -2.937600
 H        -4.628270         2.642391        -2.492082
