19
Iteration:   589
 C         1.569361        -0.078548         0.345614
 C         0.100564        -0.087150         0.050337
 C        -1.117871         0.006448         0.048802
 C        -2.647003        -0.037893        -0.173785
 C        -3.137246        -1.517201        -0.004016
 C        -2.951003         0.489922        -1.621576
 O        -2.525407         1.914439        -1.560547
 C        -3.065951         2.710833        -2.522850
 O        -3.856623         2.319184        -3.368012
 H         2.183541        -0.659624        -0.359183
 H         2.093551         0.867265         0.584133
 H         1.677478        -0.602536         1.317097
 H        -3.195903         0.693617         0.533030
 H        -2.639195        -1.937298         0.884597
 H        -4.206081        -1.680483         0.010357
 H        -2.900934        -2.112883        -0.900220
 H        -2.479591        -0.131143        -2.348932
 H        -4.028701         0.412448        -1.671964
 H        -2.625571         3.809846        -2.312156
