19
Iteration:  4667
 C         1.512142        -0.812537         1.119929
 C         0.267501        -0.468275         0.413289
 C        -0.865246        -0.110725         0.048502
 C        -2.306542         0.165923        -0.378631
 C        -3.075604        -1.245085        -0.599016
 C        -2.296416         1.307996        -1.383275
 O        -3.319742         1.150302        -2.356444
 C        -3.944542         2.287224        -2.925937
 O        -3.485679         3.361080        -2.702054
 H         1.478035        -0.463129         2.179862
 H         1.903133        -1.867667         0.836807
 H         2.213169        -0.183258         0.593091
 H        -2.910852         0.567090         0.487200
 H        -3.889610        -1.338877        -1.451635
 H        -2.390937        -2.077401        -0.782208
 H        -3.589794        -1.491254         0.375521
 H        -2.517683         2.179823        -0.820193
 H        -1.435521         1.289367        -2.018044
 H        -4.700672         1.947851        -3.654613
