19
Iteration:  3984
 C         1.469324        -0.369469         0.845503
 C         0.101657        -0.444855         0.281485
 C        -1.047022        -0.356443        -0.139247
 C        -2.403767        -0.010944        -0.424141
 C        -3.125296        -1.056396        -1.241661
 C        -2.333753         1.431911        -0.859396
 O        -3.450088         2.254854        -1.253822
 C        -3.647311         2.403514        -2.563467
 O        -3.150587         1.698516        -3.438673
 H         2.197508        -0.997077         0.162506
 H         1.699571         0.666542         0.824938
 H         1.433366        -0.712448         1.859410
 H        -2.877589         0.004020         0.575025
 H        -4.207351        -0.792784        -1.268774
 H        -3.051360        -1.007694        -2.337746
 H        -3.046051        -2.063664        -0.757526
 H        -1.958130         1.908440         0.101817
 H        -1.597405         1.562677        -1.683666
 H        -4.377060         3.218157        -2.823685
