19
Iteration:  1630
 C         1.462411        -0.066001         0.807902
 C         0.025682         0.031252         0.506335
 C        -1.115712        -0.124051         0.033664
 C        -2.517073        -0.046894        -0.491324
 C        -3.227666        -1.549275        -0.556648
 C        -2.388445         0.504016        -1.899702
 O        -2.235671         2.025832        -1.844613
 C        -3.265131         2.659618        -2.433653
 O        -4.331163         2.251690        -2.847082
 H         2.113534         0.423335         0.043198
 H         1.614533         0.526866         1.714393
 H         1.787342        -1.076333         1.128840
 H        -3.161945         0.644332         0.123778
 H        -2.576156        -2.416390        -0.480392
 H        -4.089179        -1.745699         0.086265
 H        -3.774832        -1.714540        -1.550450
 H        -1.550867         0.175348        -2.548991
 H        -3.330042         0.293490        -2.408731
 H        -2.880208         3.778409        -2.272598
