19
Iteration:  1540charge 0 multiplicity 1
 C         1.323519        -0.002345         1.016603
 C        -0.081165         0.109745         0.539421
 C        -1.143275         0.055829        -0.108936
 C        -2.456212        -0.099326        -0.748614
 C        -3.066029        -1.526764        -0.459365
 C        -2.520212         0.354253        -2.222454
 O        -2.116777         1.799867        -2.247740
 C        -3.179567         2.611716        -2.334716
 O        -4.360862         2.425984        -2.211797
 H         1.773841         0.877064         1.405605
 H         1.334851        -0.829042         1.703293
 H         1.860350        -0.394220         0.076148
 H        -3.187857         0.594199        -0.283389
 H        -4.077304        -1.246547        -0.280222
 H        -2.878415        -2.236235        -1.310156
 H        -2.747915        -1.966237         0.481307
 H        -1.757994        -0.210090        -2.810017
 H        -3.536744         0.313674        -2.706099
 H        -2.890498         3.681024        -2.734581
