19
Iteration:  2948
 C         1.372675        -0.292124         0.843792
 C        -0.052899        -0.127360         0.491203
 C        -1.174876        -0.107048         0.126180
 C        -2.494560        -0.235740        -0.486257
 C        -2.857034        -1.732151        -0.747193
 C        -2.482632         0.704783        -1.782316
 O        -2.972859         2.025934        -1.314808
 C        -3.517562         2.758909        -2.311940
 O        -3.470941         2.664575        -3.535193
 H         2.031615        -0.610737         0.040911
 H         1.630487         0.715985         1.121342
 H         1.224929        -0.992517         1.694797
 H        -3.241296         0.151138         0.251503
 H        -3.731645        -1.748165        -1.462807
 H        -1.954316        -2.194788        -1.171818
 H        -3.050063        -2.255598         0.203545
 H        -1.384262         0.658353        -2.034464
 H        -3.098953         0.401994        -2.593192
 H        -4.071001         3.443523        -1.690403
