19
Iteration:   862charge 0 multiplicity 1
 C         1.575357        -0.103666         0.695756
 C         0.097517         0.014986         0.339417
 C        -1.115208        -0.108911         0.156408
 C        -2.469139        -0.028685        -0.430031
 C        -3.345760        -1.265522        -0.348846
 C        -2.604572         0.376052        -2.043564
 O        -2.160514         1.747430        -2.242932
 C        -3.219219         2.675076        -2.384630
 O        -4.370751         2.371052        -2.476421
 H         2.164991         0.655163         0.109024
 H         1.731193         0.200890         1.747890
 H         2.073119        -0.970441         0.472013
 H        -2.881602         0.818095         0.128968
 H        -3.178562        -1.889522         0.571661
 H        -4.414808        -0.950919        -0.371721
 H        -3.027352        -1.942681        -1.228461
 H        -1.919885        -0.310625        -2.551276
 H        -3.635209         0.275950        -2.408914
 H        -2.667838         3.732043        -2.408595
