19
Iteration:  4796
 C         1.281708        -0.527247         1.058624
 C         0.041520        -0.088686         0.491271
 C        -1.093747         0.212536         0.063516
 C        -2.329453         0.122080        -0.615653
 C        -3.086592        -1.259945        -0.540895
 C        -2.137980         0.729534        -2.039703
 O        -3.325007         1.059422        -2.699546
 C        -3.772486         2.361659        -2.605120
 O        -3.199471         3.118392        -1.874108
 H         2.009967         0.391356         1.052941
 H         1.218312        -0.859368         2.136025
 H         1.737301        -1.245041         0.383538
 H        -3.043138         0.832672        -0.080960
 H        -4.249976        -1.182235        -0.657869
 H        -2.792662        -1.952455        -1.318106
 H        -3.048338        -1.751288         0.447468
 H        -1.545782         1.767999        -1.930933
 H        -1.461513         0.220993        -2.777707
 H        -4.497138         2.565535        -3.451370
