19
Iteration:   298charge 0 multiplicity 1
 C         1.232785         0.441575        -0.621668
 C        -0.123114         0.036521        -0.307178
 C        -1.327743         0.014014        -0.125618
 C        -2.772143        -0.073116        -0.039469
 C        -3.200027        -1.522972         0.137561
 C        -3.518712         0.553193        -1.156267
 O        -3.253013         1.977767        -1.215700
 C        -2.632798         2.420215        -2.281532
 O        -2.152822         1.823622        -3.248202
 H         1.949565        -0.163046         0.172251
 H         1.504916         0.410325        -1.670500
 H         1.310801         1.430159        -0.261156
 H        -3.173329         0.494539         0.912655
 H        -3.205524        -1.750754         1.214346
 H        -4.228642        -1.613133        -0.149389
 H        -2.484042        -2.152635        -0.395645
 H        -3.299000         0.189038        -2.169332
 H        -4.584544         0.577772        -0.970831
 H        -2.387556         3.533864        -2.164277
