19
Iteration:  3930charge 0 multiplicity 1
 C         1.425854        -0.442232         0.519516
 C        -0.009189        -0.421032         0.445240
 C        -1.182214        -0.241220         0.283565
 C        -2.449432         0.033277        -0.209337
 C        -2.994354        -0.853837        -1.391428
 C        -2.171994         1.454417        -0.888446
 O        -3.465915         2.065044        -1.220249
 C        -3.775334         2.127588        -2.565196
 O        -3.047687         1.884126        -3.532136
 H         1.970512        -0.465291        -0.514081
 H         1.815875         0.455590         0.926322
 H         1.706213        -1.343497         0.995891
 H        -3.165747         0.087798         0.580429
 H        -3.453617        -0.315044        -2.247410
 H        -2.319404        -1.647228        -1.805527
 H        -3.813486        -1.608554        -1.116183
 H        -1.514663         2.128799        -0.196652
 H        -1.599563         1.263374        -1.840420
 H        -4.761124         2.586195        -2.692723
