19
Iteration:  1650charge 0 multiplicity 1
 C         1.407999        -0.055301         0.818985
 C        -0.030249         0.026038         0.499060
 C        -1.126541        -0.227079         0.062087
 C        -2.436963        -0.176887        -0.533524
 C        -3.125114        -1.466835        -0.508154
 C        -2.497172         0.594776        -1.874600
 O        -2.324875         2.042130        -1.790983
 C        -3.282151         2.749719        -2.442495
 O        -4.234799         2.212644        -2.945380
 H         1.914793         0.026216        -0.145183
 H         1.967687         0.617322         1.441389
 H         1.728714        -1.060575         1.340113
 H        -2.940325         0.436037         0.207337
 H        -2.588183        -2.298224        -0.990013
 H        -3.234881        -1.876935         0.545819
 H        -4.086209        -1.504495        -1.108593
 H        -1.607332         0.304403        -2.527745
 H        -3.413240         0.424919        -2.482016
 H        -2.936780         3.755034        -2.389611
