19
Iteration:  1067
 C         1.204740         0.326201         0.922250
 C        -0.119479         0.298603         0.138817
 C        -1.261130         0.211432        -0.231100
 C        -2.667161        -0.185056        -0.733497
 C        -3.141355        -1.598685        -0.484691
 C        -2.774215         0.151504        -2.187069
 O        -2.299004         1.413239        -2.699501
 C        -2.842051         2.494124        -2.208723
 O        -3.758392         2.662692        -1.432531
 H         1.183137         0.128542         1.947631
 H         1.924885        -0.409144         0.532289
 H         1.535257         1.407705         0.792661
 H        -3.450629         0.477210        -0.274993
 H        -3.944471        -1.605222         0.236665
 H        -3.622917        -1.885747        -1.405541
 H        -2.374939        -2.214735         0.011981
 H        -2.123438        -0.613279        -2.710029
 H        -3.810856        -0.123846        -2.553686
 H        -2.401951         3.478040        -2.681360
