19
Iteration:  2583charge 0 multiplicity 1
 C         1.218738         0.497876         0.519869
 C        -0.112948         0.086260         0.112480
 C        -1.241229        -0.283894        -0.032183
 C        -2.667673        -0.470350        -0.442888
 C        -3.114852        -2.000859        -0.692796
 C        -3.017511         0.525011        -1.666446
 O        -3.162649         1.825582        -1.130869
 C        -2.933852         2.776000        -2.135254
 O        -2.696498         2.635840        -3.317898
 H         2.097465        -0.107972         0.652998
 H         1.583614         0.975581        -0.341084
 H         1.307078         1.200198         1.345502
 H        -3.367167        -0.211364         0.353919
 H        -3.984852        -1.987028        -1.363147
 H        -2.216937        -2.468260        -1.193656
 H        -3.374886        -2.425277         0.313255
 H        -2.100015         0.469696        -2.240675
 H        -3.841378         0.072310        -2.235121
 H        -3.134185         3.771877        -1.692778
