19
Iteration:   211charge 0 multiplicity 1
 C         0.980634         0.500727        -0.905220
 C        -0.350571         0.456322        -0.540076
 C        -1.470060         0.145307        -0.191869
 C        -2.876116        -0.149224         0.039372
 C        -3.261051        -1.558185         0.334953
 C        -3.444799         0.395293        -1.283816
 O        -3.254746         1.910790        -1.214164
 C        -2.447507         2.356128        -2.176023
 O        -1.712282         1.762742        -2.915603
 H         1.203836        -0.490492        -1.543468
 H         1.163144         1.441122        -1.445579
 H         1.770289         0.414247        -0.179138
 H        -3.246847         0.558938         0.842595
 H        -2.483826        -2.111692         0.891455
 H        -4.202003        -1.579380         0.901039
 H        -3.478785        -2.137456        -0.591758
 H        -2.814610        -0.042372        -2.071383
 H        -4.526789         0.204666        -1.467602
 H        -2.658798         3.428045        -2.207359
