19
Iteration:  4141
 C         1.362512        -1.171613         1.070276
 C         0.237752        -0.330858         0.501846
 C        -0.826774         0.138663         0.162242
 C        -2.292568         0.291279        -0.324241
 C        -2.522427        -1.069847        -1.299210
 C        -2.289799         1.577570        -1.148159
 O        -3.636591         1.960902        -1.353534
 C        -4.035243         2.337704        -2.621716
 O        -3.521992         2.024271        -3.680721
 H         0.975886        -1.668232         2.007292
 H         1.554943        -2.014393         0.319811
 H         2.228363        -0.699586         1.458677
 H        -2.969924         0.371291         0.518259
 H        -1.495587        -1.271813        -1.572909
 H        -2.968721        -1.849195        -0.671744
 H        -3.138191        -0.655789        -2.026171
 H        -1.811145         2.416520        -0.551656
 H        -1.748425         1.608551        -2.160675
 H        -4.939276         2.951770        -2.510174
