19
Iteration:  2196
 C         0.982531         0.969239        -0.257679
 C        -0.431129         0.439616         0.072194
 C        -1.582955         0.124378        -0.030132
 C        -2.892437        -0.450786        -0.384049
 C        -2.964967        -1.925011        -0.812080
 C        -3.509079         0.362918        -1.502002
 O        -3.347447         1.789099        -1.217181
 C        -2.403570         2.452744        -1.850520
 O        -1.713548         1.992763        -2.756315
 H         1.774213         0.525829         0.288530
 H         0.975382         0.702434        -1.279726
 H         1.225117         1.991860         0.052809
 H        -3.545247        -0.282009         0.461838
 H        -3.904205        -2.091071        -1.341350
 H        -2.121245        -2.086040        -1.514780
 H        -3.049043        -2.763153        -0.067976
 H        -3.128927         0.118639        -2.447768
 H        -4.608722         0.373534        -1.539118
 H        -2.208807         3.540748        -1.468617
