19
Iteration:  3592charge 0 multiplicity 1
 C         1.537798        -0.397159         1.128673
 C         0.045229        -0.401628         0.615371
 C        -1.014798        -0.248910        -0.046374
 C        -2.338516        -0.122850        -0.526538
 C        -2.951645        -1.489525        -0.910857
 C        -2.339658         0.858163        -1.703615
 O        -3.187737         2.100947        -1.367220
 C        -3.766053         2.764468        -2.387897
 O        -3.578027         2.500470        -3.536705
 H         1.685061        -1.221849         1.834237
 H         2.023093        -0.566812         0.122649
 H         1.712780         0.559835         1.614371
 H        -2.965238         0.278044         0.324254
 H        -4.017385        -1.462526        -0.691335
 H        -2.743221        -1.690577        -1.994543
 H        -2.548453        -2.252451        -0.254557
 H        -1.357635         1.346537        -1.607878
 H        -2.499892         0.421148        -2.617096
 H        -4.342093         3.651983        -1.935295
