19
Iteration:  1971
 C         1.165478         0.568946         0.228079
 C        -0.143790         0.177506         0.180850
 C        -1.304548        -0.033230        -0.001096
 C        -2.668503        -0.400818        -0.320295
 C        -3.117367        -1.809255        -0.472421
 C        -3.149982         0.282925        -1.575490
 O        -3.174637         1.660082        -1.282447
 C        -2.713915         2.637882        -2.152495
 O        -2.624130         2.584650        -3.348236
 H         1.070071         1.672285         0.115092
 H         1.784049         0.298481         1.101876
 H         1.847298         0.252022        -0.462126
 H        -3.287030        -0.070522         0.484165
 H        -3.583357        -2.084834         0.459455
 H        -3.671132        -2.115412        -1.379110
 H        -2.271340        -2.531129        -0.535480
 H        -2.440323         0.156647        -2.370013
 H        -4.156038        -0.007633        -1.992281
 H        -2.527586         3.657186        -1.608109
