19
Iteration:  1192charge 0 multiplicity 1
 C         0.961470         0.979053         0.483443
 C        -0.245897         0.272117         0.092052
 C        -1.444190        -0.006843        -0.032718
 C        -2.759094        -0.340092        -0.655824
 C        -3.362000        -1.915692        -0.733128
 C        -2.749198         0.102639        -2.145577
 O        -2.105579         1.327827        -2.491817
 C        -2.482251         2.529174        -1.943692
 O        -3.518019         2.753052        -1.389615
 H         1.070495         1.972095        -0.033860
 H         0.982423         0.878527         1.535773
 H         1.816682         0.286197         0.174059
 H        -3.613770         0.136951        -0.163390
 H        -2.800691        -2.832276        -0.501441
 H        -4.313791        -2.131252        -0.211656
 H        -3.559555        -1.856559        -1.778748
 H        -2.242521        -0.659767        -2.703205
 H        -3.750071         0.246336        -2.473883
 H        -1.835183         3.447412        -2.121434
