19
Iteration:   704charge 0 multiplicity 1
 C         1.504466        -0.240828         0.686568
 C         0.160435        -0.122824         0.237746
 C        -1.025928        -0.002680        -0.081711
 C        -2.542610        -0.008942        -0.269933
 C        -3.052244        -1.509639        -0.049168
 C        -2.824897         0.504089        -1.668286
 O        -2.361939         1.956109        -1.858541
 C        -3.177800         2.715579        -2.671975
 O        -4.289275         2.409011        -3.074215
 H         1.660907        -0.936477         1.408682
 H         1.990851        -0.518407        -0.266400
 H         2.144744         0.690226         0.874343
 H        -3.006535         0.763645         0.398887
 H        -2.435291        -2.023735         0.700361
 H        -4.140109        -1.757141         0.192967
 H        -2.838103        -2.031099        -1.019489
 H        -2.189283        -0.057019        -2.433436
 H        -3.909686         0.511482        -1.967891
 H        -2.588525         3.737555        -2.808120
