19
Iteration:  1568
 C         1.320305         0.003056         0.886538
 C        -0.083106        -0.072599         0.498964
 C        -1.168210        -0.008487        -0.078785
 C        -2.481539         0.005613        -0.619856
 C        -3.076947        -1.569758        -0.450796
 C        -2.453470         0.460162        -2.083710
 O        -2.143513         1.890005        -2.182964
 C        -3.182849         2.660752        -2.296733
 O        -4.348386         2.313139        -2.466522
 H         1.768492         1.051880         0.891277
 H         1.323857        -0.354528         1.964744
 H         1.921046        -0.642629         0.302705
 H        -3.208905         0.664687        -0.107267
 H        -3.744457        -1.372946         0.428741
 H        -3.598782        -1.795077        -1.376108
 H        -2.297040        -2.248849        -0.133053
 H        -1.634100        -0.065381        -2.526186
 H        -3.378253         0.315692        -2.616684
 H        -2.998943         3.681581        -2.340786
