19
Iteration:  4160
 C         1.230391        -1.188988         1.098684
 C         0.257395        -0.328653         0.492449
 C        -0.826665         0.097479         0.126421
 C        -2.104355         0.263284        -0.435035
 C        -2.460814        -0.973298        -1.214126
 C        -2.295679         1.564071        -1.168158
 O        -3.699736         1.994387        -1.339067
 C        -4.094152         2.266073        -2.617564
 O        -3.476758         2.079435        -3.645697
 H         0.790765        -1.458226         2.183332
 H         1.279023        -2.135233         0.505139
 H         2.210706        -0.724949         1.095790
 H        -2.814582         0.184672         0.466394
 H        -1.615101        -1.094958        -1.992703
 H        -2.397267        -1.822298        -0.528490
 H        -3.550199        -1.014848        -1.500530
 H        -1.883151         2.398206        -0.696991
 H        -1.787473         1.522614        -2.184814
 H        -5.126411         2.796029        -2.626485
