19
Iteration:   701charge 0 multiplicity 1
 C         1.519978        -0.223003         0.670993
 C         0.146085        -0.148049         0.220055
 C        -1.040610        -0.010092        -0.095947
 C        -2.537367        -0.018861        -0.239706
 C        -3.068323        -1.507789        -0.059780
 C        -2.805369         0.517867        -1.628779
 O        -2.382746         1.953812        -1.881255
 C        -3.163447         2.698197        -2.665609
 O        -4.285004         2.419170        -3.088860
 H         1.567889        -1.012170         1.440271
 H         2.085072        -0.501344        -0.215636
 H         2.117427         0.774088         1.005666
 H        -2.963451         0.750395         0.518089
 H        -2.430871        -2.041624         0.647201
 H        -4.107061        -1.721660         0.182734
 H        -2.703697        -1.988052        -1.004376
 H        -2.202617        -0.022110        -2.364884
 H        -3.839738         0.548517        -1.915770
 H        -2.684994         3.783825        -2.834686
