19
Iteration:   543charge 0 multiplicity 1
 C         1.531201        -0.058669         0.100959
 C         0.043213         0.026187         0.155386
 C        -1.173416        -0.076991         0.133670
 C        -2.678128        -0.066972        -0.090886
 C        -3.102238        -1.528445         0.060388
 C        -2.972376         0.498868        -1.547560
 O        -2.660421         1.851984        -1.515068
 C        -3.086807         2.661381        -2.463383
 O        -3.585526         2.385769        -3.519842
 H         1.901614         0.172386        -1.022742
 H         2.019419         0.673791         0.817012
 H         1.925723        -0.952435         0.474397
 H        -3.216297         0.612580         0.660696
 H        -2.545222        -1.921892         0.888852
 H        -4.188336        -1.662741         0.122546
 H        -2.953943        -2.036953        -0.880068
 H        -2.204910         0.009189        -2.117987
 H        -3.958276         0.278884        -1.998551
 H        -2.804341         3.790847        -2.212835
