19
Iteration:   182charge 0 multiplicity 1
 C         1.058024         0.582868        -1.012713
 C        -0.310520         0.295838        -0.557462
 C        -1.382858         0.034743         0.024429
 C        -2.911626        -0.166670         0.071030
 C        -3.243819        -1.612472         0.337765
 C        -3.609396         0.493497        -1.221686
 O        -3.384205         1.968540        -1.446058
 C        -2.383647         2.401690        -2.140539
 O        -1.660326         1.754199        -2.894238
 H         1.206533         0.097164        -1.863343
 H         1.029691         1.767015        -1.163335
 H         1.883354         0.099628        -0.305978
 H        -3.269575         0.302950         0.942973
 H        -2.557655        -1.784280         1.217959
 H        -4.294325        -1.662505         0.755977
 H        -3.008224        -2.377879        -0.442918
 H        -3.063759        -0.086283        -2.050794
 H        -4.706378         0.415799        -1.291490
 H        -2.284169         3.525610        -1.991726
