19
Iteration:   631charge 0 multiplicity 1
 C         1.555225        -0.115317         0.546596
 C         0.093248        -0.108686         0.345210
 C        -0.969203        -0.114732        -0.260828
 C        -2.414562        -0.110150        -0.289393
 C        -3.194462        -1.467534        -0.076345
 C        -2.993930         0.567428        -1.514703
 O        -2.444211         2.009191        -1.663218
 C        -3.105507         2.687662        -2.642831
 O        -4.092422         2.314880        -3.256771
 H         1.843461        -1.236950         0.127681
 H         2.005484         0.741946        -0.030814
 H         2.028790         0.041842         1.470525
 H        -2.630455         0.569796         0.545420
 H        -3.277427        -1.791992         0.964221
 H        -4.235581        -1.498862        -0.422030
 H        -2.580951        -2.257270        -0.482365
 H        -2.795268         0.104380        -2.462239
 H        -4.068716         0.673364        -1.317715
 H        -2.577730         3.637731        -2.615342
