19
Iteration:  2450charge 0 multiplicity 1
 C         1.317902         0.064184         0.514226
 C        -0.157232         0.188411         0.154350
 C        -1.357088         0.319295         0.004795
 C        -2.652627        -0.217368        -0.369756
 C        -2.704015        -1.709140        -0.870480
 C        -3.399219         0.406069        -1.546740
 O        -3.593679         1.886237        -1.256108
 C        -2.920839         2.607303        -2.194886
 O        -2.290251         2.269075        -3.190601
 H         1.845795         0.438642        -0.430608
 H         1.315663         0.822695         1.231396
 H         1.658869        -0.934113         0.838425
 H        -3.280303        -0.180058         0.519424
 H        -2.455564        -2.474678        -0.058268
 H        -3.616089        -2.027689        -1.461017
 H        -1.712335        -1.850673        -1.344104
 H        -2.916115         0.399645        -2.569895
 H        -4.391070         0.036338        -1.751663
 H        -3.041546         3.618508        -1.749446
