19
Iteration:  3778charge 0 multiplicity 1
 C         1.525764        -1.011128         0.905252
 C         0.232873        -0.449018         0.447135
 C        -0.761082        -0.063659        -0.183677
 C        -2.256991         0.298449        -0.336087
 C        -3.083806        -0.839286        -0.980898
 C        -2.399646         1.676490        -0.962652
 O        -3.789492         1.738678        -1.435247
 C        -3.919947         1.979864        -2.742772
 O        -3.074600         2.386290        -3.491925
 H         2.115866        -0.144316         1.359691
 H         1.334050        -1.875652         1.655369
 H         2.358720        -1.424030         0.298822
 H        -2.686378         0.404051         0.699084
 H        -3.900918        -1.300395        -0.447165
 H        -3.339141        -0.513434        -2.029181
 H        -2.536664        -1.808199        -1.152581
 H        -2.193047         2.384878        -0.075427
 H        -1.690919         1.794748        -1.771378
 H        -4.917607         1.611498        -3.105787
