19
Iteration:  3502charge 0 multiplicity 1
 C         1.159951        -0.239469         1.212636
 C         0.044093        -0.214787         0.372616
 C        -1.043477        -0.305182        -0.159392
 C        -2.387638        -0.173322        -0.633099
 C        -2.910502        -1.735225        -0.678363
 C        -2.385056         0.672492        -1.931076
 O        -2.819809         2.037629        -1.446228
 C        -3.423143         2.917110        -2.247814
 O        -3.827346         2.620718        -3.363988
 H         1.972015        -1.096513         1.127656
 H         1.810314         0.651635         1.199296
 H         0.850860        -0.243459         2.265852
 H        -2.965517         0.509284         0.075959
 H        -3.863785        -1.931916        -1.220874
 H        -2.044092        -2.243134        -1.077110
 H        -3.185037        -2.031922         0.330827
 H        -1.357473         0.759617        -2.357479
 H        -3.141015         0.366976        -2.583813
 H        -3.604341         3.906956        -1.673516
