19
Iteration:  4280
 C         1.449373        -0.845852         1.258887
 C         0.139835        -0.506054         0.563763
 C        -0.954164        -0.173091         0.058734
 C        -2.270843         0.107730        -0.461556
 C        -2.681698        -1.102487        -1.346035
 C        -2.237398         1.484376        -1.213270
 O        -3.548246         2.051273        -1.322084
 C        -3.993339         2.314044        -2.572280
 O        -3.471668         2.297406        -3.640114
 H         2.017728         0.145621         1.432956
 H         1.262440        -1.406658         2.124712
 H         2.203615        -1.304051         0.580247
 H        -2.959988         0.208471         0.375062
 H        -3.650128        -0.867948        -1.916460
 H        -2.056576        -1.445757        -2.174346
 H        -2.779322        -1.973598        -0.675200
 H        -1.593188         2.130587        -0.757409
 H        -1.723243         1.298717        -2.197995
 H        -5.069575         2.522993        -2.495528
