19
Iteration:  3072charge 0 multiplicity 1
 C         1.374343        -0.176844         1.119791
 C         0.033414        -0.178141         0.332770
 C        -1.114888        -0.040771        -0.084627
 C        -2.457004        -0.261899        -0.486410
 C        -2.777310        -1.747064        -0.823742
 C        -2.875922         0.501824        -1.820196
 O        -3.006021         1.977074        -1.357659
 C        -3.227902         2.923126        -2.272231
 O        -3.555191         2.666761        -3.402483
 H         1.481041        -1.212736         1.583694
 H         2.067976        -0.020822         0.363101
 H         1.326030         0.634632         1.920246
 H        -3.189133         0.206735         0.155583
 H        -3.803343        -1.865326        -1.256189
 H        -2.010952        -2.186372        -1.555443
 H        -2.690694        -2.336437         0.148649
 H        -2.124487         0.531427        -2.571730
 H        -3.893311         0.094798        -1.994094
 H        -2.869777         3.856908        -1.857523
