19
Iteration:  2356
 C         1.080905         0.690578         0.271436
 C        -0.237724         0.243266        -0.049104
 C        -1.396421        -0.111822        -0.121887
 C        -2.810445        -0.419758        -0.389357
 C        -3.105149        -1.834004        -0.582030
 C        -3.227951         0.332061        -1.583022
 O        -3.321858         1.735544        -1.257052
 C        -2.716372         2.583423        -2.066508
 O        -2.060205         2.441216        -3.075239
 H         1.122555         1.771678         0.464965
 H         1.218968         0.174780         1.248044
 H         1.755809         0.489838        -0.521632
 H        -3.379645         0.037031         0.450924
 H        -2.348930        -2.386012        -0.119613
 H        -4.073983        -2.059590        -0.211611
 H        -2.894633        -2.166717        -1.584270
 H        -2.590579         0.208347        -2.464229
 H        -4.229495         0.053346        -1.972566
 H        -2.703903         3.470879        -1.355976
