19
Iteration:  2954charge 0 multiplicity 1
 C         1.378418        -0.275929         0.878527
 C        -0.013298        -0.123028         0.464563
 C        -1.199224        -0.092538         0.098088
 C        -2.521749        -0.209419        -0.492292
 C        -2.907608        -1.692805        -0.793891
 C        -2.461521         0.681224        -1.755100
 O        -3.006205         1.979614        -1.298949
 C        -3.446717         2.776583        -2.309067
 O        -3.492670         2.628420        -3.526851
 H         2.069582        -0.765381         0.152450
 H         1.982061         0.670664         1.238796
 H         1.397445        -0.943684         1.737002
 H        -3.189003         0.049545         0.333773
 H        -3.741285        -1.731242        -1.449582
 H        -2.013234        -2.054451        -1.322684
 H        -2.935944        -2.234663         0.152202
 H        -1.427168         0.876784        -1.962424
 H        -3.176616         0.324239        -2.570691
 H        -4.155438         3.556661        -1.825482
