19
Iteration:  3161charge 0 multiplicity 1
 C         1.115397         0.205184         0.706685
 C        -0.250490        -0.153195         0.416891
 C        -1.421066        -0.080163         0.158709
 C        -2.713453        -0.359099        -0.460549
 C        -2.689422        -1.856874        -0.863551
 C        -2.820824         0.449458        -1.789284
 O        -2.461311         1.844062        -1.522942
 C        -2.900802         2.873899        -2.188836
 O        -3.623570         2.743119        -3.158557
 H         1.292704         0.033116         1.814360
 H         1.816382        -0.554667         0.434399
 H         1.397500         1.273448         0.460823
 H        -3.435121        -0.203916         0.341635
 H        -3.698031        -2.161325        -1.273019
 H        -1.964764        -2.168897        -1.711144
 H        -2.453511        -2.594261        -0.078868
 H        -2.057195         0.088046        -2.443734
 H        -3.816374         0.389249        -2.369214
 H        -2.777828         3.798506        -1.662551
