19
Iteration:  4926
 C         1.164573         0.170450         1.265256
 C         0.141825        -0.151814         0.272896
 C        -0.945139        -0.279826        -0.254370
 C        -2.340545         0.004151        -0.728083
 C        -3.483536        -1.077606        -0.735693
 C        -2.147696         0.463600        -2.214488
 O        -3.427078         1.089564        -2.746947
 C        -3.642348         2.349956        -2.256466
 O        -2.876453         2.985225        -1.517829
 H         2.162713         0.098760         0.695050
 H         1.096263         1.205067         1.555798
 H         1.203913        -0.405904         2.200857
 H        -2.742909         0.729595        -0.065637
 H        -4.384205        -0.436974        -0.941663
 H        -3.357950        -1.738847        -1.553599
 H        -3.460918        -1.610698         0.201144
 H        -1.225106         1.181593        -2.311607
 H        -2.099053        -0.547462        -2.648980
 H        -4.515929         2.794675        -2.714257
