19
Iteration:  3619charge 0 multiplicity 1
 C         1.470398        -0.510812         0.979526
 C         0.071814        -0.365039         0.390505
 C        -1.148136        -0.209212         0.256163
 C        -2.308594        -0.052801        -0.481646
 C        -2.830355        -1.508856        -0.926343
 C        -2.209925         1.032171        -1.577390
 O        -3.312344         2.059791        -1.307973
 C        -3.796400         2.709572        -2.431083
 O        -3.535321         2.469172        -3.617769
 H         1.198259        -1.163345         1.810119
 H         2.059868        -1.080162         0.315810
 H         1.855074         0.476607         1.342115
 H        -3.091679         0.281025         0.178794
 H        -3.946543        -1.537373        -1.001459
 H        -2.235806        -1.839780        -1.773585
 H        -2.586221        -2.140689        -0.036238
 H        -1.289147         1.603971        -1.510110
 H        -2.358593         0.438768        -2.599240
 H        -4.269081         3.595954        -2.073302
