19
Iteration:  3879charge 0 multiplicity 1
 C         1.483471        -0.764035         0.403961
 C         0.056694        -0.388321         0.585045
 C        -1.126964        -0.155480         0.399670
 C        -2.443536         0.185954        -0.199098
 C        -2.772073        -0.994662        -1.222631
 C        -2.308881         1.598556        -0.864576
 O        -3.698602         1.972258        -1.311782
 C        -3.788883         2.137744        -2.695013
 O        -3.027023         2.080148        -3.624068
 H         1.887637        -0.194928        -0.381043
 H         2.143412        -0.408179         1.318018
 H         1.602044        -1.858626         0.170895
 H        -3.270409         0.347876         0.559954
 H        -3.504663        -0.772887        -2.035365
 H        -1.893108        -1.505276        -1.543485
 H        -3.263731        -1.863388        -0.793853
 H        -1.943644         2.258937        -0.123261
 H        -1.695493         1.679210        -1.803882
 H        -4.887887         2.264027        -2.909541
