19
Iteration:  2288
 C         0.885112         1.038067         0.077055
 C        -0.294038         0.226998        -0.060334
 C        -1.338625        -0.308336        -0.306544
 C        -2.842178        -0.474385        -0.396761
 C        -3.298985        -1.941261        -0.480226
 C        -3.367224         0.317121        -1.599146
 O        -3.103524         1.674635        -1.266676
 C        -2.561703         2.600988        -1.953055
 O        -1.883273         2.457933        -2.928521
 H         0.940758         1.728887         0.920872
 H         1.775063         0.483720         0.235577
 H         0.921869         1.941108        -0.559898
 H        -3.218534        -0.130117         0.587234
 H        -3.777347        -2.304333         0.437413
 H        -3.997252        -2.015881        -1.289311
 H        -2.511802        -2.662992        -0.475941
 H        -2.897323        -0.163094        -2.526421
 H        -4.416107         0.125166        -1.741791
 H        -2.397498         3.585170        -1.464071
