19
Iteration:  1546
 C         1.279305        -0.022170         0.986198
 C        -0.081583         0.084462         0.539442
 C        -1.099788         0.076837        -0.099603
 C        -2.464704        -0.151232        -0.739037
 C        -3.080290        -1.526738        -0.433667
 C        -2.499151         0.366580        -2.212189
 O        -2.118534         1.820810        -2.224844
 C        -3.166164         2.686760        -2.359485
 O        -4.370037         2.382168        -2.248908
 H         1.845382         0.922706         1.271144
 H         1.526274        -0.749033         1.836551
 H         1.790140        -0.329199         0.103906
 H        -3.255316         0.453137        -0.286266
 H        -4.167657        -1.285804        -0.148514
 H        -3.066029        -2.067114        -1.373204
 H        -2.555584        -1.963152         0.433452
 H        -1.782315        -0.181115        -2.803547
 H        -3.483714         0.351022        -2.649851
 H        -2.911244         3.659505        -2.612794
