19
Iteration:  2208
 C         0.902571         0.957266        -0.227118
 C        -0.388681         0.439241         0.089440
 C        -1.554670         0.087821        -0.079649
 C        -2.930217        -0.443937        -0.347743
 C        -3.037062        -1.933902        -0.814453
 C        -3.436090         0.387505        -1.526021
 O        -3.329719         1.765165        -1.150866
 C        -2.341716         2.433535        -1.856021
 O        -1.727217         2.050675        -2.817010
 H         1.675567         0.525117         0.318274
 H         1.188397         0.792659        -1.227215
 H         0.799659         2.058219        -0.237701
 H        -3.566110        -0.317713         0.531938
 H        -4.050823        -2.219000        -1.069661
 H        -2.398782        -2.158285        -1.680719
 H        -2.608556        -2.444452         0.044939
 H        -2.832344         0.212917        -2.367999
 H        -4.476994         0.072715        -1.721575
 H        -2.573508         3.512248        -1.567873
