19
Iteration:   757charge 0 multiplicity 1
 C         1.514884        -0.358333         0.603109
 C         0.082839         0.048638         0.399545
 C        -1.035684         0.117718        -0.103511
 C        -2.543027         0.014644        -0.313212
 C        -3.063850        -1.361474        -0.094144
 C        -2.701668         0.360274        -1.825468
 O        -2.303129         1.800561        -2.044320
 C        -3.263902         2.663148        -2.354135
 O        -4.312131         2.467476        -2.999493
 H         1.705489        -0.085720         1.585854
 H         1.919898        -1.371259         0.417670
 H         2.309943         0.340856         0.031446
 H        -3.094741         0.832864         0.266644
 H        -2.942546        -1.723665         0.910359
 H        -4.124830        -1.426785        -0.338608
 H        -2.701057        -2.076927        -0.850927
 H        -1.915420        -0.231102        -2.336254
 H        -3.638206         0.263204        -2.381480
 H        -2.782666         3.612881        -1.998445
