19
Iteration:  1028
 C         1.188817         0.189836         0.865347
 C        -0.226689         0.150841         0.452276
 C        -1.227078        -0.002982        -0.249717
 C        -2.573969        -0.112349        -0.730417
 C        -2.943303        -1.563005        -0.332254
 C        -2.753093         0.204268        -2.176210
 O        -2.300851         1.542970        -2.703209
 C        -2.980833         2.605623        -2.403495
 O        -3.876834         2.713195        -1.560508
 H         1.585626        -0.671290         1.550180
 H         1.582914         0.128088        -0.141023
 H         1.613932         1.156110         1.276568
 H        -3.084052         0.582987        -0.058151
 H        -3.784344        -1.583073         0.397235
 H        -3.246012        -2.335160        -1.096081
 H        -2.035428        -2.040865         0.058959
 H        -2.201651        -0.369265        -2.886280
 H        -3.780129         0.254870        -2.409030
 H        -2.834335         3.347951        -3.203403
