19
Iteration:  4875
 C         1.274624        -0.083536         1.169105
 C        -0.062995        -0.171763         0.573931
 C        -1.031862         0.067492        -0.153555
 C        -2.284795         0.039762        -0.945438
 C        -3.259866        -1.159632        -0.443240
 C        -2.197724         0.485679        -2.471469
 O        -3.429072         1.162766        -2.823038
 C        -3.599870         2.347021        -2.309113
 O        -2.987673         2.958890        -1.492185
 H         2.043229         0.255216         0.494088
 H         1.200638         0.499672         2.159214
 H         1.493742        -1.028077         1.613764
 H        -2.832054         0.970705        -0.555071
 H        -4.132849        -1.169652        -1.168709
 H        -2.675704        -2.077646        -0.541406
 H        -3.652699        -0.971423         0.569483
 H        -1.396231         1.150515        -2.413968
 H        -1.979251        -0.286562        -3.211950
 H        -4.671850         2.633655        -2.575640
