19
Iteration:  2033
 C         1.065142         0.725022         0.220175
 C        -0.224850         0.295552        -0.092814
 C        -1.358145        -0.054569        -0.259181
 C        -2.810655        -0.442802        -0.312162
 C        -2.972271        -1.923226        -0.483902
 C        -3.385829         0.381508        -1.501070
 O        -3.254693         1.785974        -1.145067
 C        -2.726703         2.625895        -2.145351
 O        -2.111435         2.305224        -3.133241
 H         1.342429         1.270686        -0.684266
 H         1.040105         1.426007         1.034965
 H         1.871009        -0.162571         0.193803
 H        -3.241749        -0.100491         0.681843
 H        -2.124976        -2.527766        -0.188170
 H        -3.836807        -2.234522         0.100140
 H        -3.072966        -2.081005        -1.555360
 H        -2.791412         0.120738        -2.385587
 H        -4.468355         0.176653        -1.637877
 H        -3.092225         3.590755        -1.840897
