19
Iteration:  1918
 C         1.191459         0.373836         0.383963
 C        -0.154329         0.147684         0.157756
 C        -1.289411        -0.200325         0.087250
 C        -2.636192        -0.394707        -0.347901
 C        -2.967183        -1.919901        -0.431953
 C        -2.980551         0.472320        -1.577560
 O        -2.949170         1.920582        -1.245277
 C        -3.011143         2.796572        -2.302062
 O        -2.910426         2.460734        -3.452480
 H         1.541348         1.177611         1.151444
 H         1.642681        -0.654831         0.722324
 H         1.755900         0.662672        -0.495100
 H        -3.381825         0.016873         0.329757
 H        -3.965691        -2.118773        -0.918258
 H        -2.273312        -2.380845        -1.201145
 H        -2.976181        -2.352291         0.601132
 H        -2.464245         0.364836        -2.502924
 H        -4.070333         0.313275        -1.704149
 H        -3.094334         3.799787        -2.086336
