19
Iteration:   344
 C         1.321880         0.264412        -0.310474
 C        -0.134758         0.364312        -0.389030
 C        -1.283511        -0.059728        -0.205944
 C        -2.706251        -0.119647        -0.022472
 C        -3.248204        -1.594926         0.070512
 C        -3.413323         0.622190        -1.115577
 O        -3.155953         1.992397        -1.167446
 C        -2.646710         2.483960        -2.379723
 O        -2.477611         1.834384        -3.369204
 H         1.766392        -0.052145         0.791343
 H         1.574364        -0.548247        -1.027796
 H         1.950710         1.146950        -0.638232
 H        -2.921737         0.443902         0.969230
 H        -2.768931        -2.045032         0.961236
 H        -4.326225        -1.709861         0.273855
 H        -2.791378        -2.133921        -0.775507
 H        -3.136185         0.194040        -2.153741
 H        -4.495140         0.567166        -0.952145
 H        -2.585508         3.604139        -2.269436
