19
Iteration:  3620
 C         1.462333        -0.512457         0.973939
 C         0.074334        -0.362370         0.383135
 C        -1.153361        -0.205526         0.262191
 C        -2.309537        -0.053446        -0.479679
 C        -2.820786        -1.502945        -0.927884
 C        -2.211968         1.023919        -1.572933
 O        -3.316632         2.064091        -1.310724
 C        -3.800270         2.707739        -2.431634
 O        -3.532095         2.467399        -3.616128
 H         1.212872        -1.204224         1.839033
 H         2.071608        -1.081521         0.346580
 H         1.891514         0.451867         1.307682
 H        -3.086972         0.294136         0.185497
 H        -3.929872        -1.501047        -1.023323
 H        -2.229333        -1.855626        -1.745609
 H        -2.600311        -2.133537        -0.060634
 H        -1.280491         1.609499        -1.483953
 H        -2.318641         0.420003        -2.590882
 H        -4.281358         3.596606        -2.072903
