19
Iteration:  1154charge 0 multiplicity 1
 C         0.921820         0.809315         0.506899
 C        -0.356625         0.348998         0.233790
 C        -1.339700        -0.134544        -0.252276
 C        -2.746122        -0.240269        -0.794369
 C        -3.261809        -1.716236        -0.516305
 C        -2.766490         0.133742        -2.243046
 O        -2.055293         1.394173        -2.496256
 C        -2.591355         2.491267        -2.029474
 O        -3.566464         2.611524        -1.299882
 H         0.967768         1.801934         0.927879
 H         1.173588         0.201118         1.428147
 H         1.671472         0.597774        -0.195158
 H        -3.358936         0.560552        -0.314509
 H        -2.610101        -2.219626         0.217987
 H        -4.343094        -1.698473        -0.297672
 H        -3.282510        -2.350077        -1.475041
 H        -2.146047        -0.556005        -2.881807
 H        -3.812930         0.197165        -2.689794
 H        -1.829924         3.289716        -2.453035
