19
Iteration:  1836
 C         1.499334         0.038237         0.731600
 C        -0.004090         0.047302         0.418233
 C        -1.132529        -0.129883        -0.053802
 C        -2.587164        -0.233806        -0.314078
 C        -2.844135        -1.814628        -0.631831
 C        -3.117990         0.603014        -1.469358
 O        -2.879570         2.078541        -1.375109
 C        -3.098012         2.760552        -2.463005
 O        -3.491000         2.341012        -3.542488
 H         1.536833        -0.473408         1.654728
 H         2.040242        -0.496846        -0.036918
 H         1.810416         1.134947         0.710358
 H        -3.100642        -0.024063         0.635626
 H        -1.893496        -2.196660        -1.042872
 H        -3.320635        -2.166636         0.260823
 H        -3.502758        -1.934261        -1.522425
 H        -2.462401         0.219259        -2.325679
 H        -4.161351         0.297587        -1.678577
 H        -2.827271         3.917330        -2.227091
