19
Iteration:  3223charge 0 multiplicity 1
 C         1.096852         0.519854         0.774302
 C        -0.234292         0.110091         0.441666
 C        -1.244148        -0.450251         0.000808
 C        -2.586902        -0.498141        -0.517595
 C        -3.234836        -1.826820        -1.087154
 C        -2.695076         0.424892        -1.688569
 O        -2.216606         1.900380        -1.376803
 C        -2.850885         2.804256        -2.221006
 O        -3.704235         2.572208        -3.061812
 H         0.946798         1.222506         1.645886
 H         1.745982        -0.322127         0.993204
 H         1.714331         0.976173        -0.034720
 H        -3.294074        -0.207805         0.310842
 H        -4.042684        -1.533569        -1.729677
 H        -2.434437        -2.311673        -1.628512
 H        -3.627031        -2.426815        -0.281430
 H        -2.155469        -0.108634        -2.485206
 H        -3.712285         0.542813        -2.056443
 H        -2.623507         3.831724        -1.768593
