19
Iteration:  2681charge 0 multiplicity 1
 C         1.009215         0.503290         0.328335
 C        -0.375820         0.056517         0.269306
 C        -1.555584        -0.258729         0.234642
 C        -2.821296        -0.453076        -0.456490
 C        -2.834985        -2.034758        -0.823880
 C        -2.859260         0.432707        -1.665492
 O        -2.618881         1.855173        -1.149726
 C        -2.641857         2.765062        -2.151251
 O        -3.140201         2.706866        -3.267722
 H         1.600939         0.588587         1.247928
 H         1.605763        -0.369907        -0.184434
 H         1.238246         1.471212        -0.184072
 H        -3.685889        -0.077001         0.171025
 H        -3.861640        -2.336384        -1.011034
 H        -2.186033        -1.931145        -1.744150
 H        -2.361451        -2.431029         0.130333
 H        -2.071219         0.045202        -2.303063
 H        -3.825850         0.388387        -2.259351
 H        -2.566989         3.763107        -1.623691
