19
Iteration:  2624
 C         1.147977         0.526715         0.224650
 C        -0.304591         0.094500         0.378965
 C        -1.414034        -0.266072         0.217346
 C        -2.752122        -0.449251        -0.455100
 C        -3.041687        -1.928683        -0.784338
 C        -2.806478         0.400227        -1.687618
 O        -2.799443         1.749597        -1.192321
 C        -3.035623         2.710169        -2.077730
 O        -2.787236         2.732839        -3.277548
 H         1.876074        -0.002339         0.869304
 H         1.261354         0.488302        -0.963158
 H         1.120254         1.571240         0.446494
 H        -3.473382        -0.004599         0.285375
 H        -3.733132        -1.896028        -1.627908
 H        -2.074104        -2.479376        -0.970896
 H        -3.509668        -2.441116         0.078985
 H        -1.859743         0.283152        -2.301457
 H        -3.718108         0.344635        -2.282437
 H        -3.227289         3.598034        -1.427991
