19
Iteration:  3456charge 0 multiplicity 1
 C         1.267958        -0.221079         1.177864
 C        -0.095981        -0.188832         0.657518
 C        -1.121324        -0.016692         0.041605
 C        -2.434852        -0.238449        -0.495272
 C        -2.788150        -1.710072        -0.960061
 C        -2.752513         0.566419        -1.883844
 O        -2.539995         1.952541        -1.605770
 C        -3.258841         2.869894        -2.311378
 O        -3.906464         2.648265        -3.286550
 H         1.903722        -0.658155         0.313553
 H         1.666960         0.758218         1.295095
 H         1.561052        -0.748618         2.125808
 H        -3.244033         0.005498         0.246255
 H        -3.842826        -1.666862        -1.204167
 H        -2.233241        -1.954465        -1.846294
 H        -2.747371        -2.528280        -0.236991
 H        -2.037116         0.369291        -2.672074
 H        -3.811372         0.402676        -2.215416
 H        -3.094338         3.918448        -1.882380
