19
Iteration:  3196charge 0 multiplicity 1
 C         1.168794         0.460762         0.700701
 C        -0.212134        -0.036953         0.541036
 C        -1.355627        -0.373324         0.157435
 C        -2.670258        -0.446853        -0.541438
 C        -3.029329        -1.938633        -1.039168
 C        -2.714285         0.568849        -1.735031
 O        -2.364974         1.899053        -1.343495
 C        -2.784936         2.807119        -2.337216
 O        -3.740339         2.653635        -3.080737
 H         1.170456         0.816499         1.707455
 H         1.803380        -0.479230         0.547368
 H         1.585376         1.163924        -0.002147
 H        -3.484810        -0.233767         0.164300
 H        -4.010482        -1.879198        -1.616513
 H        -2.222708        -2.331247        -1.702718
 H        -3.224115        -2.583793        -0.152615
 H        -1.964339         0.085858        -2.414024
 H        -3.724840         0.591937        -2.226364
 H        -2.287509         3.751516        -2.090410
