19
Iteration:   955charge 0 multiplicity 1
 C         1.283986         0.014276         0.916591
 C         0.020719         0.171629         0.241211
 C        -1.084176         0.023265        -0.280242
 C        -2.494079        -0.028122        -0.610318
 C        -3.181500        -1.431445        -0.321114
 C        -2.692779         0.287886        -2.045788
 O        -2.173424         1.564010        -2.470381
 C        -3.054020         2.661197        -2.321348
 O        -4.223787         2.532540        -1.994689
 H         1.796977        -0.830199         0.390906
 H         1.950879         0.904268         0.818643
 H         1.362197        -0.336416         2.071796
 H        -3.102463         0.612610         0.057922
 H        -3.619255        -1.469957         0.700038
 H        -4.014273        -1.733758        -0.963468
 H        -2.453824        -2.219532        -0.338774
 H        -2.090274        -0.376699        -2.707133
 H        -3.787371         0.267521        -2.349544
 H        -2.486675         3.487684        -2.823938
