19
Iteration:  1414
 C         1.177452         0.321674         1.212901
 C        -0.084405         0.243870         0.250307
 C        -1.222499         0.081133        -0.216671
 C        -2.532565        -0.142659        -0.873668
 C        -3.144626        -1.566341        -0.552902
 C        -2.672821         0.180172        -2.386126
 O        -2.358087         1.502975        -2.787697
 C        -2.905895         2.553551        -2.156522
 O        -3.869800         2.588772        -1.427150
 H         0.953202        -0.262793         2.171737
 H         2.018819        -0.051073         0.561473
 H         1.224084         1.346777         1.379303
 H        -3.155567         0.587596        -0.328481
 H        -2.449377        -2.063107         0.169472
 H        -4.116166        -1.546000         0.026255
 H        -3.407469        -2.285573        -1.389272
 H        -2.001439        -0.430158        -2.985706
 H        -3.684830        -0.049068        -2.650671
 H        -2.326366         3.460314        -2.474787
