19
Iteration:   432charge 0 multiplicity 1
 C         1.444190         0.061309        -0.068398
 C        -0.012005         0.175105        -0.119861
 C        -1.219922        -0.089686        -0.171537
 C        -2.666848        -0.149379         0.061352
 C        -3.095908        -1.619236         0.004035
 C        -3.400631         0.717315        -1.273666
 O        -2.887649         2.054607        -1.235677
 C        -2.839703         2.587331        -2.479872
 O        -3.021927         1.986614        -3.549330
 H         1.809554         1.004289         0.535187
 H         1.851720        -0.511844         0.745860
 H         1.752236         0.074102        -1.062457
 H        -2.847105         0.340956         1.116483
 H        -2.626881        -2.228545         0.778754
 H        -4.189992        -1.718323         0.177741
 H        -2.919909        -2.103071        -0.959978
 H        -2.954254         0.177367        -2.157760
 H        -4.478502         0.608646        -1.397953
 H        -2.563033         3.729987        -2.286375
