19
Iteration:   756
 C         1.513581        -0.364688         0.601481
 C         0.076330         0.057606         0.405121
 C        -1.030996         0.117290        -0.104237
 C        -2.537474         0.019247        -0.310815
 C        -3.057844        -1.362250        -0.094339
 C        -2.709688         0.348185        -1.835793
 O        -2.304382         1.802475        -2.034989
 C        -3.265375         2.663902        -2.354378
 O        -4.307636         2.467792        -3.000490
 H         1.711779        -0.083334         1.633484
 H         1.945104        -1.352406         0.361180
 H         2.289463         0.325832         0.035076
 H        -3.078947         0.821325         0.262974
 H        -2.936979        -1.723614         0.904779
 H        -4.106196        -1.412355        -0.323458
 H        -2.752788        -2.079125        -0.863505
 H        -1.941382        -0.225466        -2.348597
 H        -3.636198         0.288547        -2.378265
 H        -2.796842         3.602961        -2.048384
