19
Iteration:   270
 C         1.184623         0.503728        -0.761425
 C        -0.125909         0.084309        -0.278925
 C        -1.341537        -0.066686        -0.070352
 C        -2.827972        -0.092312         0.103741
 C        -3.233707        -1.606722         0.216143
 C        -3.490909         0.584864        -1.135273
 O        -3.441693         2.015558        -1.418528
 C        -2.440534         2.410191        -2.215409
 O        -2.036610         1.866131        -3.199432
 H         1.884709        -0.218918        -0.719118
 H         1.211980         0.727749        -1.909156
 H         1.505964         1.447876        -0.140077
 H        -3.146484         0.432961         0.933164
 H        -2.800537        -2.002184         1.163513
 H        -4.329949        -1.881843         0.219814
 H        -2.684576        -2.160115        -0.597418
 H        -3.209519         0.070390        -2.104654
 H        -4.588741         0.508357        -1.018620
 H        -2.074084         3.377537        -1.874745
