19
Iteration:  2618
 C         1.132457         0.520692         0.266853
 C        -0.247598         0.099109         0.358182
 C        -1.428190        -0.287105         0.162645
 C        -2.715755        -0.433569        -0.423576
 C        -3.044243        -1.908202        -0.747094
 C        -2.832169         0.399498        -1.708762
 O        -2.822850         1.757953        -1.204474
 C        -3.033942         2.746129        -2.076592
 O        -2.765690         2.705192        -3.253739
 H         1.868784        -0.125127         0.739461
 H         1.242859         0.577126        -0.776427
 H         1.122852         1.656055         0.425107
 H        -3.327382        -0.004030         0.384083
 H        -3.680269        -2.018028        -1.649753
 H        -2.221114        -2.585099        -1.049391
 H        -3.576458        -2.600184        -0.049007
 H        -1.975108         0.293147        -2.342069
 H        -3.730071         0.352845        -2.383228
 H        -3.474607         3.638160        -1.561941
