19
Iteration:  2504
 C         1.242068         0.176701         0.697579
 C        -0.121340         0.169136         0.132624
 C        -1.214586         0.093204        -0.360122
 C        -2.563464        -0.336082        -0.518952
 C        -2.682006        -1.930195        -0.624308
 C        -3.483779         0.493451        -1.537807
 O        -3.461851         1.928585        -1.241812
 C        -2.936766         2.730025        -2.174721
 O        -2.446980         2.447412        -3.266294
 H         1.767495        -0.514342         0.027767
 H         1.599312         1.122012         1.007828
 H         1.230277        -0.450867         1.572169
 H        -3.041407        -0.158592         0.463094
 H        -3.410487        -2.245523         0.158211
 H        -3.077612        -2.221023        -1.634595
 H        -1.704624        -2.417177        -0.674848
 H        -3.157693         0.386842        -2.625570
 H        -4.527564         0.228794        -1.380474
 H        -3.224544         3.743609        -1.794665
