19
Iteration:   683charge 0 multiplicity 1
 C         1.479039        -0.205094         0.639668
 C         0.173718        -0.201692         0.108103
 C        -1.016144        -0.108468        -0.005823
 C        -2.449402         0.000132        -0.125149
 C        -2.987460        -1.420955        -0.169147
 C        -2.870751         0.594373        -1.532290
 O        -2.375986         1.882395        -1.870175
 C        -3.211277         2.728512        -2.653492
 O        -4.285596         2.420393        -3.192268
 H         1.661153        -1.008252         1.340493
 H         2.368766        -0.046717        -0.012696
 H         1.538700         0.724298         1.198794
 H        -2.924428         0.474664         0.719363
 H        -2.866025        -1.938330         0.792299
 H        -4.123449        -1.240205        -0.218688
 H        -2.869421        -2.097548        -1.017647
 H        -2.335045        -0.141532        -2.221416
 H        -3.987712         0.458333        -1.674788
 H        -2.518203         3.563481        -2.704189
