19
Iteration:  3903
 C         1.419157        -0.589900         0.413594
 C        -0.001286        -0.380806         0.580804
 C        -1.203880        -0.262987         0.442309
 C        -2.410749         0.114400        -0.261072
 C        -2.860867        -0.827108        -1.327937
 C        -2.216921         1.545520        -0.972664
 O        -3.517676         1.956241        -1.327272
 C        -3.848821         2.114589        -2.612685
 O        -3.020466         1.981075        -3.473155
 H         1.642515        -0.258791        -0.579456
 H         2.186229         0.048103         1.013034
 H         1.753039        -1.704638         0.415940
 H        -3.256791         0.267876         0.518516
 H        -3.370868        -0.540242        -2.247273
 H        -2.127845        -1.592051        -1.399019
 H        -3.580816        -1.527559        -0.970157
 H        -1.885893         2.142164        -0.217193
 H        -1.520707         1.599006        -1.785033
 H        -4.981090         2.220238        -2.712605
