19
Iteration:  1116charge 0 multiplicity 1
 C         1.081848         0.661383         0.695468
 C        -0.237591         0.251251         0.218773
 C        -1.347391         0.047531        -0.278442
 C        -2.665369        -0.162998        -0.806122
 C        -3.260917        -1.636745        -0.470427
 C        -2.848752         0.165916        -2.357876
 O        -2.137436         1.403568        -2.607731
 C        -2.665458         2.490912        -2.061349
 O        -3.628243         2.493430        -1.324435
 H         0.906725         1.371605         1.649863
 H         1.522433        -0.258743         1.167570
 H         1.798591         1.284501         0.001026
 H        -3.331871         0.495647        -0.239922
 H        -3.470829        -1.619266         0.636280
 H        -4.289975        -1.794754        -0.874292
 H        -2.492787        -2.408810        -0.569893
 H        -2.341692        -0.588308        -2.948511
 H        -3.888974         0.197898        -2.611835
 H        -2.041118         3.380488        -2.198828
