19
Iteration:  2537
 C         1.256391         0.379232         0.703264
 C        -0.073728         0.033896         0.133643
 C        -1.154972        -0.043418        -0.351741
 C        -2.612313        -0.337573        -0.469558
 C        -2.910497        -1.835007        -0.654518
 C        -3.371539         0.442374        -1.629935
 O        -3.330417         1.805807        -1.209166
 C        -2.913751         2.654010        -2.122236
 O        -2.580921         2.578223        -3.281747
 H         1.962101        -0.383451         0.406746
 H         1.940887         1.149021         0.521558
 H         1.189404         0.215090         1.730625
 H        -3.023497         0.098276         0.459361
 H        -3.914620        -2.103432        -0.258539
 H        -2.947971        -1.967488        -1.771365
 H        -2.192422        -2.501567        -0.119136
 H        -2.830648         0.279116        -2.605761
 H        -4.403127         0.098971        -1.703476
 H        -3.042451         3.685767        -1.749953
