19
Iteration:  2887
 C         1.285003        -0.153940         0.826818
 C        -0.079284        -0.171433         0.582751
 C        -1.209533        -0.019702         0.148474
 C        -2.531595        -0.261423        -0.461389
 C        -2.760124        -1.737243        -0.789441
 C        -2.609985         0.471915        -1.736881
 O        -2.958976         1.904269        -1.479682
 C        -3.213426         2.899846        -2.306786
 O        -3.590386         2.742697        -3.440684
 H         1.985219         0.209851         0.008778
 H         1.598501         0.165606         1.835956
 H         1.689674        -1.166592         0.943620
 H        -3.286663         0.283740         0.123552
 H        -3.633790        -1.937144        -1.376683
 H        -1.962029        -2.295256        -1.298850
 H        -2.897852        -2.310619         0.180026
 H        -1.627264         0.468006        -2.239335
 H        -3.485171         0.237419        -2.398429
 H        -3.397468         3.905270        -1.852307
