19
Iteration:  2918
 C         1.403210        -0.208563         0.788927
 C        -0.105314        -0.277873         0.593654
 C        -1.256248        -0.134856         0.273080
 C        -2.528634        -0.226857        -0.547960
 C        -2.729596        -1.752468        -0.655334
 C        -2.566559         0.630992        -1.875478
 O        -2.894222         2.029499        -1.414153
 C        -3.501144         2.822387        -2.301132
 O        -3.486610         2.775424        -3.513837
 H         1.922831        -0.100413        -0.217698
 H         1.563852         0.585014         1.451908
 H         1.657162        -1.200122         1.343226
 H        -3.383409         0.285247        -0.039210
 H        -3.414852        -2.245790        -1.425949
 H        -1.719269        -2.243021        -0.804409
 H        -3.226526        -2.148837         0.311092
 H        -1.613402         0.415989        -2.452528
 H        -3.292940         0.375425        -2.661514
 H        -4.215201         3.417868        -1.603092
