19
Iteration:  4221
 C         1.364241        -1.090901         1.294902
 C         0.189732        -0.549282         0.663989
 C        -0.771734        -0.087181         0.018767
 C        -2.060284         0.317874        -0.429149
 C        -2.777967        -0.755040        -1.331230
 C        -2.103803         1.724917        -1.201229
 O        -3.600754         1.786285        -1.444902
 C        -4.179257         2.057191        -2.625994
 O        -3.543796         2.284419        -3.625527
 H         1.632196        -0.636312         2.228177
 H         1.479536        -2.201189         1.500103
 H         2.230487        -1.002994         0.453161
 H        -2.601369         0.456687         0.509864
 H        -3.167634        -0.329308        -2.276893
 H        -1.962167        -1.492802        -1.623514
 H        -3.750451        -1.265252        -0.972427
 H        -1.943713         2.620461        -0.415414
 H        -1.552170         1.691809        -2.123584
 H        -5.226928         1.841145        -2.478638
