19
Iteration:   476charge 0 multiplicity 1
 C         1.526797         0.100840        -0.021507
 C         0.073980        -0.054574        -0.079674
 C        -1.154985        -0.068717         0.051852
 C        -2.646741        -0.066462        -0.072005
 C        -3.182358        -1.466417        -0.000612
 C        -3.196585         0.543424        -1.321785
 O        -2.860869         1.928559        -1.303215
 C        -2.974669         2.621488        -2.463777
 O        -3.241652         2.116370        -3.521098
 H         1.893695         1.207427        -0.105696
 H         1.784756         0.031062         1.053008
 H         1.932256        -0.589794        -0.651152
 H        -3.097601         0.547519         0.801708
 H        -3.462652        -1.922160         0.932743
 H        -3.975976        -1.480594        -0.770208
 H        -2.501390        -2.047652        -0.606010
 H        -2.742951         0.196311        -2.267866
 H        -4.255534         0.539503        -1.558478
 H        -2.493476         3.705084        -2.388102
