19
Iteration:  1204
 C         0.980861         0.953511         0.481406
 C        -0.317724         0.259601         0.136965
 C        -1.465674        -0.009977        -0.088071
 C        -2.763376        -0.408205        -0.642164
 C        -3.328582        -1.869287        -0.771099
 C        -2.830533         0.086190        -2.197015
 O        -2.063631         1.331180        -2.367837
 C        -2.473509         2.548736        -1.959978
 O        -3.513573         2.748648        -1.392910
 H         1.077076         1.904570        -0.209725
 H         1.111917         1.513030         1.419822
 H         1.900675         0.385265         0.223389
 H        -3.416930         0.298843        -0.121185
 H        -2.480032        -2.563182        -0.707345
 H        -4.198958        -1.978688        -0.061200
 H        -3.765348        -2.083611        -1.750984
 H        -2.317319        -0.555475        -2.892640
 H        -3.866557         0.109040        -2.458524
 H        -1.628250         3.186987        -2.389682
