19
Iteration:  4654charge 0 multiplicity 1
 C         1.463876        -0.819462         0.980002
 C         0.172874        -0.521466         0.449485
 C        -0.873967        -0.038560         0.154370
 C        -2.195923         0.162927        -0.300822
 C        -2.957289        -1.322182        -0.588258
 C        -2.343579         1.329391        -1.385396
 O        -3.450625         1.148045        -2.359896
 C        -3.862218         2.257637        -2.941896
 O        -3.477259         3.400715        -2.765401
 H         1.336704        -0.844049         2.129114
 H         1.833316        -1.849673         0.820652
 H         2.196358        -0.103313         0.791509
 H        -2.801891         0.570210         0.598810
 H        -3.762007        -1.031983        -1.284993
 H        -2.215361        -2.072769        -1.028312
 H        -3.360957        -1.636532         0.414887
 H        -2.475739         2.330184        -0.874446
 H        -1.399108         1.522309        -1.853704
 H        -4.588472         1.993285        -3.772800
