19
Iteration:   357
 C         1.289137         0.224835        -0.246107
 C        -0.096122         0.265917        -0.314497
 C        -1.234436        -0.068837        -0.144604
 C        -2.643599        -0.090755        -0.017345
 C        -3.124392        -1.550547         0.040705
 C        -3.472037         0.603021        -1.119427
 O        -3.184278         2.022300        -1.236515
 C        -2.591136         2.450451        -2.349867
 O        -2.606406         1.903252        -3.443882
 H         1.627500         0.192877         0.804840
 H         1.658097        -0.730979        -0.784315
 H         1.695223         1.177566        -0.813775
 H        -2.881498         0.411619         0.941709
 H        -2.545147        -2.192086         0.720782
 H        -4.225868        -1.462252         0.320716
 H        -3.243359        -2.005647        -0.951661
 H        -3.295838         0.084220        -2.108311
 H        -4.552622         0.460054        -0.864529
 H        -2.315626         3.471044        -2.206780
