19
Iteration:  4770
 C         1.394339        -0.494103         1.050549
 C         0.019298        -0.329993         0.627218
 C        -1.082429        -0.085513         0.107974
 C        -2.360513         0.229841        -0.479944
 C        -3.077137        -1.163000        -0.557420
 C        -2.085919         0.828001        -1.943275
 O        -3.282696         1.069846        -2.750316
 C        -3.819111         2.283694        -2.596253
 O        -3.366281         3.337329        -2.112513
 H         1.987108         0.430772         1.176609
 H         1.563070        -1.084901         1.929351
 H         1.800928        -0.969588         0.063916
 H        -2.833633         0.910213         0.170896
 H        -4.077781        -1.348203        -0.762558
 H        -2.544699        -1.591576        -1.454175
 H        -2.870497        -1.855562         0.264969
 H        -1.339798         1.685134        -2.054239
 H        -1.621777         0.076009        -2.600012
 H        -4.779166         2.243614        -3.069964
