19
Iteration:   897
 C         1.358068        -0.027325         0.748007
 C         0.006786        -0.177070         0.281005
 C        -1.137029         0.048651        -0.111840
 C        -2.507313         0.015559        -0.480037
 C        -3.176141        -1.268987        -0.218079
 C        -2.478904         0.267970        -2.108335
 O        -2.153554         1.662743        -2.298537
 C        -3.165231         2.633740        -2.275222
 O        -4.355680         2.496560        -2.348273
 H         1.988867         0.356100        -0.168184
 H         1.275020         0.847939         1.367748
 H         1.750528        -0.791833         1.358190
 H        -2.973401         0.780010         0.115226
 H        -2.737913        -1.878404         0.604525
 H        -4.269796        -1.087639        -0.064747
 H        -3.172459        -1.871970        -1.189320
 H        -1.606223        -0.248088        -2.540360
 H        -3.352145        -0.055935        -2.624491
 H        -2.784828         3.715698        -2.173864
