19
Iteration:  4043
 C         1.457682        -0.540733         1.010867
 C         0.172483        -0.379177         0.316139
 C        -1.023034        -0.370812        -0.025315
 C        -2.369837         0.125131        -0.373506
 C        -3.201871        -0.863971        -1.397399
 C        -2.068308         1.521845        -1.015967
 O        -3.409887         2.083111        -1.294803
 C        -3.920023         2.177720        -2.510192
 O        -3.255185         1.814146        -3.474890
 H         1.753971        -1.546034         1.008953
 H         2.345160        -0.019590         0.495921
 H         1.458958        -0.239383         2.069226
 H        -2.840824         0.341795         0.552458
 H        -3.769346        -1.509100        -0.699466
 H        -3.666310        -0.187590        -2.109545
 H        -2.449035        -1.331153        -1.995610
 H        -1.655969         2.214179        -0.271297
 H        -1.388218         1.610474        -1.972784
 H        -4.947002         2.477153        -2.457936
