19
Iteration:  2206
 C         0.916798         0.962140        -0.226982
 C        -0.378698         0.441752         0.092982
 C        -1.568874         0.101949        -0.075508
 C        -2.929770        -0.442705        -0.356403
 C        -3.038926        -1.931828        -0.821989
 C        -3.439052         0.378777        -1.521093
 O        -3.335929         1.770047        -1.158063
 C        -2.336071         2.439840        -1.844504
 O        -1.728109         2.040776        -2.812980
 H         1.692522         0.479536         0.359246
 H         1.109737         0.799521        -1.308859
 H         0.838396         2.029668        -0.239459
 H        -3.540897        -0.329792         0.532407
 H        -4.049085        -2.213531        -1.112980
 H        -2.314985        -2.149416        -1.650717
 H        -2.634579        -2.490476         0.061452
 H        -2.858599         0.187291        -2.402572
 H        -4.508245         0.126580        -1.677190
 H        -2.599336         3.407807        -1.584794
