19
Iteration:   135
 C         1.083119         0.623093        -0.978583
 C        -0.175444         0.132033        -0.330458
 C        -1.389754         0.105266        -0.239577
 C        -2.830657        -0.060743         0.012041
 C        -3.247510        -1.452675         0.248618
 C        -3.667018         0.450448        -1.178119
 O        -3.444009         1.879051        -1.323560
 C        -2.386806         2.397518        -2.198643
 O        -1.672555         1.678080        -2.848404
 H         0.887151         0.870713        -1.983382
 H         1.355087         1.568031        -0.350515
 H         1.949860        -0.125146        -1.104749
 H        -3.111524         0.563352         0.828811
 H        -3.321749        -1.735901         1.324577
 H        -4.305081        -1.507782        -0.131629
 H        -2.632391        -2.232509        -0.264237
 H        -3.394430        -0.155318        -2.058501
 H        -4.732638         0.253910        -0.821386
 H        -2.638403         3.455163        -2.331016
