19
Iteration:  3325charge 0 multiplicity 1
 C         1.171913         0.297023         1.049086
 C        -0.168173         0.118195         0.449251
 C        -1.220601        -0.301717        -0.075858
 C        -2.592626        -0.469209        -0.644448
 C        -3.035751        -2.008356        -0.780626
 C        -2.776473         0.335035        -1.886333
 O        -2.360694         1.723800        -1.633353
 C        -2.935250         2.826209        -2.220502
 O        -3.778179         3.065762        -3.062958
 H         1.480841         1.420363         0.793232
 H         1.203706         0.306696         2.077220
 H         2.030359        -0.276675         0.610360
 H        -3.382679        -0.215129         0.144769
 H        -4.079366        -2.058246        -1.029181
 H        -2.381060        -2.506946        -1.498033
 H        -2.616317        -2.329156         0.162960
 H        -2.264431        -0.118077        -2.673686
 H        -3.835466         0.201577        -2.191409
 H        -2.468817         3.623116        -1.582008
