19
Iteration:   650charge 0 multiplicity 1
 C         1.679815        -0.146433         0.611731
 C         0.239025        -0.204098         0.230478
 C        -0.946709        -0.122900        -0.069397
 C        -2.490483        -0.019370        -0.269243
 C        -3.156227        -1.426312        -0.167744
 C        -3.068744         0.626106        -1.539155
 O        -2.478987         1.884970        -1.748831
 C        -3.145873         2.712330        -2.631027
 O        -4.135889         2.341920        -3.212304
 H         2.185645        -1.137695         0.759488
 H         2.245264         0.575421        -0.051153
 H         1.620941         0.298952         1.608283
 H        -2.912480         0.521724         0.550302
 H        -3.371934        -1.699302         0.873090
 H        -4.201479        -1.207050        -0.544972
 H        -2.597532        -2.256038        -0.605791
 H        -2.829740         0.013822        -2.470241
 H        -4.181003         0.801604        -1.534066
 H        -2.672281         3.654084        -2.844846
