19
Iteration:   697charge 0 multiplicity 1
 C         1.547548        -0.191663         0.650503
 C         0.113032        -0.167669         0.198711
 C        -1.053484        -0.024720        -0.101380
 C        -2.521809        -0.021407        -0.193291
 C        -3.067774        -1.501215        -0.083336
 C        -2.786373         0.545148        -1.592042
 O        -2.401664         1.945736        -1.902250
 C        -3.159733         2.690586        -2.661102
 O        -4.271470         2.431738        -3.105554
 H         1.516493        -1.069102         1.470462
 H         2.254080        -0.537357        -0.152138
 H         1.885059         0.690182         1.132015
 H        -2.874974         0.611658         0.592431
 H        -2.433853        -2.026778         0.652133
 H        -4.119256        -1.627763         0.136701
 H        -2.645204        -1.951261        -0.973424
 H        -2.220546        -0.027979        -2.307497
 H        -3.849474         0.534945        -1.861181
 H        -2.832720         3.654251        -2.833273
