19
Iteration:  1089
 C         1.048999         0.505780         0.819142
 C        -0.132935         0.288689         0.070231
 C        -1.307151         0.023420        -0.207893
 C        -2.614256        -0.024906        -0.637675
 C        -3.203855        -1.583845        -0.505113
 C        -2.757295         0.075426        -2.215492
 O        -2.296697         1.452487        -2.762841
 C        -2.709986         2.481373        -2.058290
 O        -3.715298         2.554371        -1.413699
 H         0.899413         0.562190         1.834330
 H         1.523610        -0.472435         0.755858
 H         1.721995         1.343070         0.511013
 H        -3.311177         0.716670        -0.179807
 H        -3.834294        -1.863302         0.318640
 H        -3.676442        -1.799874        -1.444904
 H        -2.253132        -2.083940        -0.287560
 H        -2.139933        -0.726330        -2.714588
 H        -3.841392        -0.134943        -2.442384
 H        -1.991682         3.386765        -2.331469
