19
Iteration:  4678
 C         1.551470        -0.742377         1.106384
 C         0.250277        -0.433985         0.430581
 C        -0.912883        -0.176212        -0.015163
 C        -2.329825         0.087581        -0.367033
 C        -3.115961        -1.169034        -0.611598
 C        -2.253752         1.294261        -1.430059
 O        -3.348611         1.122589        -2.395979
 C        -3.855065         2.225239        -2.868526
 O        -3.526645         3.395937        -2.672181
 H         1.560139        -0.553479         2.208651
 H         1.665772        -1.888235         1.191171
 H         2.469724        -0.295302         0.727240
 H        -2.657251         0.565175         0.592347
 H        -3.821418        -1.089718        -1.561394
 H        -2.382649        -1.955352        -0.742332
 H        -3.749568        -1.399949         0.288277
 H        -2.258102         2.262455        -1.010550
 H        -1.258207         1.292710        -1.838597
 H        -4.812672         1.976141        -3.356561
