19
Iteration:  1300charge 0 multiplicity 1
 C         0.938018         0.799135         0.630269
 C        -0.315694         0.341038         0.152587
 C        -1.450483        -0.030523        -0.226961
 C        -2.809727        -0.288650        -0.699797
 C        -3.120148        -1.789883        -0.736056
 C        -2.787658         0.120017        -2.189041
 O        -2.159919         1.334604        -2.452332
 C        -2.522988         2.434058        -1.915093
 O        -3.575892         2.795568        -1.423151
 H         1.696073         0.229955         0.126872
 H         1.238079         1.792006         0.403765
 H         1.217567         0.479263         1.709670
 H        -3.550924         0.320435        -0.093298
 H        -3.841876        -1.958503        -1.588291
 H        -2.092451        -2.294992        -0.850664
 H        -3.589205        -2.121014         0.186605
 H        -2.162768        -0.605749        -2.734079
 H        -3.804516         0.119566        -2.641721
 H        -1.723459         3.163254        -2.311368
