19
Iteration:  3362charge 0 multiplicity 1
 C         1.189882         0.129662         1.048165
 C        -0.166516        -0.043916         0.465733
 C        -1.288023        -0.081277        -0.013876
 C        -2.616705        -0.277631        -0.564760
 C        -2.732214        -1.761384        -0.974631
 C        -2.981134         0.416068        -1.786944
 O        -2.376908         1.732109        -1.685560
 C        -2.886111         2.788679        -2.243805
 O        -3.811049         2.769920        -3.013663
 H         1.607625         0.912592         0.457069
 H         1.038082         0.505762         2.111726
 H         1.811250        -0.734508         1.135268
 H        -3.309168        -0.055308         0.233164
 H        -3.664943        -2.089782        -1.523281
 H        -1.883909        -2.235416        -1.503546
 H        -2.992583        -2.373810        -0.070858
 H        -2.569223        -0.100236        -2.734857
 H        -4.020383         0.654254        -1.858066
 H        -2.458150         3.683140        -1.854583
