19
Iteration:  3811
 C         1.493899        -1.047385         0.772059
 C         0.254048        -0.350756         0.332459
 C        -0.856350         0.035763        -0.004416
 C        -2.298479         0.256685        -0.222963
 C        -2.913355        -0.933520        -1.014879
 C        -2.422307         1.602356        -0.955533
 O        -3.872794         1.762462        -1.460578
 C        -3.950869         2.188096        -2.745626
 O        -2.940638         2.190771        -3.435285
 H         2.170887        -0.196688         0.986428
 H         1.242403        -1.333447         1.833202
 H         1.761655        -1.803043         0.079165
 H        -2.751334         0.327457         0.781225
 H        -3.868099        -1.213793        -0.582909
 H        -3.140532        -0.689454        -2.081016
 H        -2.226739        -1.818539        -1.158038
 H        -2.488354         2.471197        -0.218326
 H        -1.646184         1.816376        -1.703611
 H        -4.949522         2.394146        -3.178007
