19
Iteration:  3887
 C         1.432179        -0.690880         0.381499
 C         0.034431        -0.392980         0.600882
 C        -1.156261        -0.224638         0.422084
 C        -2.368892         0.188867        -0.244182
 C        -2.781929        -0.990403        -1.219616
 C        -2.251317         1.563613        -0.865309
 O        -3.653960         1.987591        -1.338041
 C        -3.858296         2.095241        -2.666805
 O        -3.014214         2.058546        -3.564865
 H         1.795195        -0.164037        -0.572352
 H         1.948509        -0.257536         1.272649
 H         1.418345        -1.731164         0.298828
 H        -3.169684         0.354023         0.443009
 H        -3.185067        -0.424092        -2.108613
 H        -2.012924        -1.556960        -1.842429
 H        -3.534876        -1.697090        -0.708301
 H        -1.929143         2.437939        -0.115355
 H        -1.604811         1.554587        -1.807456
 H        -4.868578         2.375887        -2.938708
