19
Iteration:  3958charge 0 multiplicity 1
 C         1.583263        -0.363701         0.689775
 C         0.074090        -0.442446         0.301992
 C        -1.149431        -0.448036         0.105812
 C        -2.507769         0.006241        -0.302864
 C        -3.126651        -1.021278        -1.322103
 C        -2.224901         1.525663        -0.842587
 O        -3.456883         2.218733        -1.243194
 C        -3.739415         2.278823        -2.609727
 O        -3.100104         1.783298        -3.487720
 H         2.273186        -0.680676        -0.069655
 H         1.770555         0.714476         0.976649
 H         1.595194        -1.087184         1.580626
 H        -3.159565         0.135829         0.636466
 H        -3.802426        -0.695261        -2.086607
 H        -2.420164        -1.441221        -2.061391
 H        -3.548339        -1.824181        -0.727897
 H        -1.873176         2.027096         0.023015
 H        -1.529291         1.557483        -1.639706
 H        -4.536964         3.046818        -2.813832
