19
Iteration:  1914
 C         1.228944         0.352693         0.395445
 C        -0.125822         0.141922         0.162390
 C        -1.268319        -0.193634         0.067196
 C        -2.689252        -0.391124        -0.323090
 C        -2.972108        -1.918782        -0.474406
 C        -2.982185         0.499368        -1.560179
 O        -2.930521         1.920782        -1.238713
 C        -3.028617         2.798918        -2.320624
 O        -2.936447         2.439897        -3.458456
 H         1.441321         0.977705         1.255718
 H         1.560853        -0.586930         0.792041
 H         1.668384         0.760610        -0.505172
 H        -3.365221         0.087559         0.395938
 H        -3.850836        -2.191126        -1.039000
 H        -2.133308        -2.384320        -1.014107
 H        -3.038459        -2.159786         0.578565
 H        -2.383241         0.307172        -2.480852
 H        -4.061935         0.216487        -1.752257
 H        -3.125584         3.963074        -2.072249
