19
Iteration:  2710charge 0 multiplicity 1
 C         1.103045         0.480813         0.521265
 C        -0.275537         0.015163         0.346077
 C        -1.441836        -0.117155         0.032011
 C        -2.754999        -0.457010        -0.468066
 C        -2.889233        -1.945658        -0.929856
 C        -3.123983         0.506940        -1.568862
 O        -2.496671         1.777122        -1.277479
 C        -2.712932         2.755523        -2.139620
 O        -3.185903         2.627141        -3.241544
 H         1.289624         0.771392         1.575553
 H         1.889780        -0.288482         0.543123
 H         1.511177         1.193429        -0.220515
 H        -3.521918        -0.333546         0.296075
 H        -3.930678        -2.199480        -1.124862
 H        -2.327771        -2.110995        -1.829070
 H        -2.530139        -2.555011        -0.137365
 H        -2.787360         0.070315        -2.554123
 H        -4.175621         0.613697        -1.691322
 H        -2.556355         3.742004        -1.694170
