19
Iteration:  3451charge 0 multiplicity 1
 C         1.255358        -0.204500         1.142161
 C        -0.105169        -0.177998         0.679680
 C        -1.122236        -0.022560         0.062082
 C        -2.464572        -0.301139        -0.481317
 C        -2.754688        -1.663918        -0.994173
 C        -2.808715         0.565863        -1.865873
 O        -2.532116         1.956189        -1.634311
 C        -3.213670         2.862192        -2.302480
 O        -3.919772         2.636860        -3.274896
 H         1.902502        -0.616128         0.437114
 H         1.745678         0.819959         1.336610
 H         1.455499        -0.865726         1.979487
 H        -3.162358         0.008957         0.281060
 H        -3.859726        -1.554965        -1.160663
 H        -2.172697        -1.778551        -1.960325
 H        -2.668882        -2.416156        -0.189568
 H        -1.931501         0.256428        -2.524373
 H        -3.835646         0.394910        -2.261444
 H        -2.907908         3.810863        -1.909079
