19
Iteration:  1644
 C         1.404269        -0.040105         0.811381
 C         0.013712         0.034158         0.528853
 C        -1.094841        -0.222166         0.051010
 C        -2.443368        -0.127686        -0.509398
 C        -3.216133        -1.533531        -0.547051
 C        -2.474820         0.599710        -1.900689
 O        -2.300844         2.006380        -1.805501
 C        -3.287580         2.746944        -2.419973
 O        -4.242785         2.217615        -2.911364
 H         1.991759        -0.004148        -0.144412
 H         1.890938         0.620589         1.594441
 H         1.570246        -1.033189         1.101040
 H        -3.021958         0.552079         0.201826
 H        -2.364469        -2.253979        -0.763332
 H        -3.362118        -1.667203         0.504918
 H        -3.994340        -1.605613        -1.287554
 H        -1.613235         0.216779        -2.399076
 H        -3.365082         0.429569        -2.480170
 H        -3.080067         3.903762        -2.659572
