19
Iteration:  1026
 C         1.185160         0.185218         0.866610
 C        -0.217014         0.127732         0.452386
 C        -1.198216         0.002285        -0.236227
 C        -2.592560        -0.092575        -0.721018
 C        -2.947775        -1.582392        -0.333541
 C        -2.738845         0.200403        -2.163581
 O        -2.302898         1.533610        -2.714169
 C        -2.981715         2.640170        -2.405703
 O        -3.889697         2.709980        -1.580579
 H         1.554150        -0.715147         1.463331
 H         1.569202         0.115698        -0.174944
 H         1.643549         1.236437         1.379848
 H        -3.035352         0.647087        -0.034123
 H        -3.753141        -1.664833         0.385533
 H        -3.286387        -2.327123        -1.069658
 H        -2.021205        -2.010931         0.098228
 H        -2.228846        -0.376141        -2.916037
 H        -3.771927         0.246504        -2.406419
 H        -2.916938         3.415794        -3.142148
