19
Iteration:  4433
 C         1.411520        -0.206282         1.100016
 C         0.160112        -0.354683         0.496093
 C        -0.929719        -0.543229         0.038399
 C        -2.285750        -0.136921        -0.454002
 C        -3.117211        -1.199046        -1.307584
 C        -2.271402         1.099020        -1.362329
 O        -3.511371         1.733351        -1.343059
 C        -3.880353         2.426677        -2.505561
 O        -3.109828         2.648316        -3.396416
 H         2.336002        -0.483643         0.523298
 H         1.529008         0.840546         1.305351
 H         1.316386        -0.760606         2.094899
 H        -2.887057         0.159036         0.402604
 H        -3.851873        -0.501242        -1.818983
 H        -2.438471        -1.706443        -2.009541
 H        -3.852215        -1.769798        -0.719156
 H        -1.607558         1.771912        -0.876388
 H        -2.009458         0.703601        -2.360685
 H        -4.867703         2.832754        -2.405949
