19
Iteration:  4025charge 0 multiplicity 1
 C         1.423340        -0.480713         0.964147
 C         0.171370        -0.310318         0.267049
 C        -0.993748        -0.401261        -0.072398
 C        -2.300954         0.028926        -0.478145
 C        -3.187415        -0.872078        -1.312231
 C        -2.219661         1.475550        -0.990265
 O        -3.458957         2.196048        -1.165187
 C        -3.786376         2.228841        -2.538598
 O        -3.194117         1.725884        -3.493105
 H         1.921992        -1.497962         0.964392
 H         2.206285         0.192863         0.603031
 H         1.157712        -0.435066         2.080674
 H        -2.954457         0.100468         0.473437
 H        -4.025427        -1.194221        -0.682795
 H        -3.704698        -0.377178        -2.222212
 H        -2.699431        -1.762302        -1.716924
 H        -1.632355         2.049370        -0.245822
 H        -1.637538         1.429772        -1.820528
 H        -4.689734         2.925928        -2.614658
