19
Iteration:  1506charge 0 multiplicity 1
 C         1.215212         0.045271         1.135337
 C        -0.008937         0.080659         0.293123
 C        -1.169521         0.084027        -0.100100
 C        -2.506385        -0.006247        -0.597468
 C        -2.989047        -1.488321        -0.550013
 C        -2.563349         0.258530        -2.133848
 O        -2.195167         1.696376        -2.591451
 C        -3.103064         2.637063        -2.290320
 O        -4.301102         2.468150        -1.973890
 H         1.240537         0.716020         1.958138
 H         1.282727        -0.969819         1.523152
 H         2.158949         0.207350         0.496076
 H        -3.108372         0.692009        -0.030537
 H        -3.590585        -1.607507        -1.433524
 H        -2.322620        -2.329459        -0.659822
 H        -3.625265        -1.736634         0.265890
 H        -1.727650        -0.254668        -2.628804
 H        -3.542897        -0.062700        -2.583737
 H        -2.551186         3.617007        -2.576449
