19
Iteration:  1800
 C         1.440858        -0.093006         0.891138
 C         0.100967        -0.036634         0.245438
 C        -1.096638         0.025647        -0.022521
 C        -2.549244        -0.193359        -0.373854
 C        -2.789584        -1.720263        -0.574881
 C        -3.114541         0.582483        -1.511434
 O        -2.753226         2.002240        -1.456754
 C        -3.193260         2.757970        -2.468861
 O        -3.676462         2.386233        -3.524029
 H         1.671775        -0.913700         1.575818
 H         2.298221        -0.107165         0.223874
 H         1.588483         0.775704         1.564125
 H        -3.106631         0.160324         0.549885
 H        -2.345013        -2.243303         0.226806
 H        -3.808022        -2.139571        -0.540383
 H        -2.461217        -2.024481        -1.553633
 H        -2.540574         0.309413        -2.399132
 H        -4.175575         0.467288        -1.738922
 H        -3.054844         3.865846        -2.087404
