19
Iteration:  3374
 C         1.149695         0.114206         1.026557
 C        -0.173632        -0.091277         0.474715
 C        -1.316448        -0.095778        -0.037537
 C        -2.655095        -0.344569        -0.538964
 C        -2.681529        -1.798316        -0.935323
 C        -2.987582         0.575558        -1.786894
 O        -2.248754         1.774042        -1.583036
 C        -2.924866         2.795466        -2.321777
 O        -3.903474         2.726471        -3.052052
 H         1.909458         0.647951         0.562293
 H         1.084674         0.579013         2.097112
 H         1.566605        -0.873467         1.082966
 H        -3.413058        -0.107176         0.180072
 H        -3.503463        -1.854118        -1.695953
 H        -1.688609        -1.955473        -1.446247
 H        -2.656253        -2.402280        -0.013390
 H        -2.613810         0.056478        -2.762832
 H        -4.084858         0.612823        -1.885206
 H        -2.314707         3.664650        -2.159714
