19
Iteration:  3329charge 0 multiplicity 1
 C         1.216270         0.297543         1.043224
 C        -0.154685         0.093779         0.475234
 C        -1.244969        -0.251969        -0.081649
 C        -2.607125        -0.444369        -0.631527
 C        -3.005368        -1.988799        -0.810860
 C        -2.814725         0.311319        -1.880918
 O        -2.357619         1.718831        -1.639594
 C        -2.936004         2.796119        -2.213637
 O        -3.782651         3.064376        -3.067886
 H         1.642622         1.262273         0.892131
 H         1.166380         0.397503         2.178461
 H         2.007566        -0.298236         0.673402
 H        -3.366763        -0.275973         0.082900
 H        -4.088699        -2.045621        -1.139555
 H        -2.401046        -2.490992        -1.586933
 H        -2.723069        -2.380499         0.230007
 H        -2.231254        -0.211798        -2.744035
 H        -3.881485         0.386858        -2.069392
 H        -2.538697         3.608926        -1.636235
