19
Iteration:  1519charge 0 multiplicity 1
 C         1.225174        -0.016678         1.075085
 C        -0.015391         0.166257         0.401096
 C        -1.108818         0.013643        -0.089361
 C        -2.483249        -0.049482        -0.679396
 C        -3.055917        -1.444030        -0.556637
 C        -2.491746         0.290347        -2.153064
 O        -2.207476         1.665576        -2.421085
 C        -3.166704         2.635295        -2.336532
 O        -4.304423         2.474893        -2.065259
 H         1.422278         0.812359         1.725194
 H         1.315339        -0.922968         1.631081
 H         2.055481         0.021936         0.288600
 H        -3.264128         0.603599        -0.225256
 H        -3.968924        -1.580151        -1.072523
 H        -2.164038        -1.957557        -0.945405
 H        -3.211595        -1.625323         0.516790
 H        -1.766903        -0.379136        -2.672917
 H        -3.525237         0.136255        -2.553404
 H        -2.769430         3.730695        -2.477524
