19
Iteration:  3176charge 0 multiplicity 1
 C         1.104636         0.294603         0.736524
 C        -0.243696        -0.127340         0.445443
 C        -1.413517        -0.249025         0.168989
 C        -2.680817        -0.395713        -0.479199
 C        -2.811315        -1.846381        -0.947835
 C        -2.749213         0.484828        -1.756027
 O        -2.412860         1.844174        -1.420606
 C        -2.896643         2.838587        -2.227071
 O        -3.682735         2.719731        -3.147282
 H         1.342963         0.588524         1.718926
 H         1.944732        -0.346308         0.237332
 H         1.291787         1.136829         0.131290
 H        -3.593827        -0.036430         0.003198
 H        -3.812845        -1.981542        -1.354338
 H        -2.000966        -1.938230        -1.635774
 H        -2.634752        -2.440858        -0.038713
 H        -2.030635         0.129826        -2.602241
 H        -3.729158         0.393485        -2.229471
 H        -2.185458         3.712587        -2.053320
