19
Iteration:  1936charge 0 multiplicity 1
 C         1.316883         0.437742         0.316728
 C        -0.135767         0.192103         0.216275
 C        -1.320643        -0.158535         0.103226
 C        -2.732554        -0.420124        -0.355712
 C        -3.038857        -1.917381        -0.459018
 C        -3.089074         0.426566        -1.638827
 O        -3.006306         1.822472        -1.229124
 C        -2.898755         2.727164        -2.263680
 O        -2.823218         2.534909        -3.446643
 H         1.414177         1.367873         0.843858
 H         1.786974        -0.229603         0.984287
 H         1.634891         0.564448        -0.706256
 H        -3.329831        -0.007958         0.480669
 H        -4.067388        -2.075714        -0.167833
 H        -2.865253        -2.394517        -1.421045
 H        -2.414443        -2.286454         0.339119
 H        -2.293021         0.205587        -2.368752
 H        -4.069171         0.123330        -2.085466
 H        -2.947574         3.797584        -1.749149
