19
Iteration:  1126
 C         1.041407         0.716253         0.695039
 C        -0.264132         0.239591         0.257253
 C        -1.306267         0.107093        -0.318685
 C        -2.726412        -0.251615        -0.856831
 C        -3.287920        -1.662586        -0.421965
 C        -2.850170         0.120000        -2.340681
 O        -2.078099         1.408002        -2.561116
 C        -2.643490         2.508473        -2.033859
 O        -3.607486         2.506170        -1.309829
 H         1.031871         1.584853         1.463140
 H         1.647023        -0.119004         1.097132
 H         1.690300         0.968082        -0.268284
 H        -3.322081         0.574766        -0.466225
 H        -3.274389        -1.802376         0.678041
 H        -4.298924        -1.789403        -0.837466
 H        -2.817276        -2.469706        -0.962878
 H        -2.391599        -0.464451        -3.112575
 H        -3.858996         0.356522        -2.590179
 H        -2.194360         3.425512        -2.440595
