19
Iteration:  3448
 C         1.253888        -0.181197         1.124296
 C        -0.090770        -0.166672         0.705053
 C        -1.148470        -0.034595         0.065767
 C        -2.488312        -0.325455        -0.489042
 C        -2.736147        -1.630714        -1.018960
 C        -2.834279         0.559431        -1.837998
 O        -2.526001         1.957178        -1.645762
 C        -3.177710         2.854091        -2.308552
 O        -3.933379         2.630011        -3.264536
 H         1.989983        -0.661757         0.363415
 H         1.707710         0.790735         1.382845
 H         1.312703        -0.941627         1.915927
 H        -3.161865         0.035459         0.348269
 H        -3.836253        -1.549877        -1.197146
 H        -2.183763        -1.731021        -1.951807
 H        -2.536340        -2.351402        -0.207073
 H        -1.984153         0.140068        -2.422021
 H        -3.747403         0.397881        -2.279185
 H        -2.780125         3.822191        -1.912841
