19
Iteration:  3561
 C         1.491124        -0.302219         1.298469
 C         0.145447        -0.311337         0.567064
 C        -0.930098        -0.422337        -0.066692
 C        -2.259832        -0.123451        -0.619508
 C        -3.081835        -1.408779        -0.897900
 C        -2.518654         0.784165        -1.826935
 O        -3.034098         2.003170        -1.339375
 C        -3.649065         2.733209        -2.302203
 O        -3.667060         2.575026        -3.523375
 H         1.815362        -1.208797         1.684096
 H         2.235540         0.121571         0.456434
 H         1.534063         0.465705         2.126884
 H        -2.794506         0.341142         0.234981
 H        -4.133053        -1.095956        -1.062155
 H        -2.954992        -1.886383        -1.959949
 H        -2.972530        -2.271337        -0.176008
 H        -1.636621         1.148943        -2.378031
 H        -3.170984         0.447282        -2.695852
 H        -4.295453         3.528323        -1.892939
