19
Iteration:  3761
 C         1.504771        -0.928096         0.990263
 C         0.277654        -0.518540         0.285381
 C        -0.850762        -0.195885        -0.004574
 C        -2.181331         0.251501        -0.253589
 C        -3.035206        -0.851894        -1.036207
 C        -2.323145         1.704092        -0.972506
 O        -3.713946         1.772501        -1.430060
 C        -3.960974         1.935297        -2.795856
 O        -3.182343         2.461559        -3.539618
 H         1.866745        -0.213194         1.666836
 H         1.265289        -1.886748         1.471236
 H         2.121538        -1.145483         0.062400
 H        -2.557984         0.310672         0.781762
 H        -3.956343        -0.927024        -0.377425
 H        -3.246471        -0.704144        -2.077669
 H        -2.584918        -1.863743        -0.975036
 H        -2.339644         2.553687        -0.356811
 H        -1.612302         1.869873        -1.825942
 H        -5.019100         1.730033        -3.056921
