19
Iteration:  4891
 C         1.193069         0.007675         1.224153
 C        -0.074236        -0.121450         0.504259
 C        -1.014674        -0.182030        -0.233624
 C        -2.291170         0.041930        -0.894141
 C        -3.243978        -1.073870        -0.549933
 C        -2.129187         0.495802        -2.365816
 O        -3.431692         1.109306        -2.800049
 C        -3.697051         2.398145        -2.261755
 O        -2.917499         2.934273        -1.474866
 H         1.865224         0.221516         0.342032
 H         1.212646         0.885818         1.802517
 H         1.609088        -0.923394         1.713147
 H        -2.761634         0.917871        -0.470813
 H        -4.255269        -1.052128        -0.921252
 H        -2.926813        -2.155733        -0.630933
 H        -3.483178        -0.878761         0.515676
 H        -1.301859         1.175396        -2.802638
 H        -1.977941        -0.358465        -3.052288
 H        -4.526688         2.892910        -2.800303
