19
Iteration:  4791charge 0 multiplicity 1
 C         1.334827        -0.536747         1.043083
 C        -0.009532        -0.125273         0.532451
 C        -1.065466         0.139946         0.073878
 C        -2.362518         0.168743        -0.607504
 C        -3.062198        -1.225119        -0.558581
 C        -2.117526         0.712856        -1.992628
 O        -3.303259         1.053584        -2.709878
 C        -3.818366         2.364976        -2.637576
 O        -3.218142         3.175745        -1.907066
 H         1.913341         0.364378         1.127692
 H         1.252000        -0.821867         2.070827
 H         1.869238        -1.233731         0.324280
 H        -3.086938         0.764448        -0.101657
 H        -4.095095        -1.131999        -0.614757
 H        -2.870976        -2.057961        -1.293546
 H        -2.894280        -1.722179         0.406439
 H        -1.709189         1.715885        -1.920818
 H        -1.429031         0.192075        -2.647917
 H        -4.626187         2.503759        -3.349935
