19
Iteration:   228
 C         1.165748         0.489186        -0.957548
 C        -0.280269         0.418163        -0.397060
 C        -1.481624         0.129529        -0.138007
 C        -2.924669        -0.034313         0.028957
 C        -3.309861        -1.550269         0.261841
 C        -3.520172         0.416660        -1.261366
 O        -3.205671         1.757334        -1.226418
 C        -2.496165         2.378816        -2.194252
 O        -1.797277         1.812207        -2.972683
 H         1.473647        -0.499875        -1.203531
 H         1.247607         1.300997        -1.742961
 H         1.807237         0.685481        -0.033535
 H        -3.270999         0.565679         0.897822
 H        -2.467762        -1.985757         0.784744
 H        -4.215030        -1.608492         0.886685
 H        -3.409431        -2.073684        -0.699062
 H        -3.040016        -0.069314        -2.115279
 H        -4.616801         0.310581        -1.271514
 H        -2.480255         3.502362        -2.051456
