19
Iteration:  3220
 C         1.111793         0.512338         0.787014
 C        -0.249745         0.108136         0.441158
 C        -1.246955        -0.431409         0.019927
 C        -2.591115        -0.515206        -0.520246
 C        -3.220638        -1.829430        -1.082437
 C        -2.692947         0.421624        -1.688076
 O        -2.237403         1.926577        -1.390614
 C        -2.849445         2.812875        -2.218702
 O        -3.698159         2.571041        -3.055923
 H         0.942306         1.196786         1.558613
 H         1.823580        -0.407920         0.910256
 H         1.568344         0.963978        -0.070194
 H        -3.227229        -0.249061         0.347820
 H        -4.067809        -1.613583        -1.772187
 H        -2.445352        -2.318637        -1.655511
 H        -3.653600        -2.490351        -0.289100
 H        -2.065249        -0.126822        -2.509234
 H        -3.728976         0.507504        -1.993174
 H        -2.516667         3.862422        -1.867376
