19
Iteration:  1855
 C         1.456058         0.112423         0.671524
 C         0.033364         0.011019         0.363970
 C        -1.150424        -0.044854         0.078199
 C        -2.606630        -0.270996        -0.350139
 C        -2.921512        -1.688433        -0.668362
 C        -3.098220         0.577994        -1.582600
 O        -2.942439         1.954229        -1.260754
 C        -3.017516         2.727655        -2.424506
 O        -3.392119         2.302395        -3.522083
 H         1.674013         0.037444         1.739576
 H         1.944117        -0.538873        -0.034015
 H         1.867928         1.115686         0.308359
 H        -3.214654         0.194051         0.482076
 H        -2.342807        -1.965969        -1.557571
 H        -2.733231        -2.386142         0.167280
 H        -3.937170        -1.879537        -1.001390
 H        -2.598640         0.371441        -2.549478
 H        -4.159960         0.328190        -1.669438
 H        -2.710446         3.751880        -2.051326
