19
Iteration:  3438charge 0 multiplicity 1
 C         1.289744        -0.181726         1.091454
 C        -0.143734        -0.090256         0.676187
 C        -1.189554        -0.105402         0.100083
 C        -2.558025        -0.207699        -0.484806
 C        -2.714095        -1.634472        -1.072437
 C        -2.824558         0.535860        -1.719273
 O        -2.479695         1.915523        -1.626880
 C        -3.096185         2.859182        -2.409718
 O        -3.963256         2.631171        -3.200297
 H         1.925049        -0.496750         0.239388
 H         1.602013         0.735498         1.637995
 H         1.238797        -0.906210         1.885620
 H        -3.318229        -0.119307         0.329200
 H        -3.747407        -1.972656        -1.361424
 H        -2.116256        -1.794882        -1.998566
 H        -2.238210        -2.417334        -0.458115
 H        -2.161010         0.093988        -2.527514
 H        -3.775321         0.426728        -2.154311
 H        -2.715675         3.845634        -2.167394
