19
Iteration:  2486
 C         1.236465         0.052812         0.654681
 C        -0.067208         0.269836         0.086302
 C        -1.258366         0.082688        -0.293726
 C        -2.716616        -0.295806        -0.410898
 C        -2.617981        -1.832363        -0.722342
 C        -3.482741         0.479712        -1.527385
 O        -3.553446         1.914616        -1.216392
 C        -2.948027         2.735465        -2.225179
 O        -2.385652         2.370458        -3.243128
 H         2.120545        -0.123450         0.032478
 H         1.648977         0.979163         1.132319
 H         1.330649        -0.663180         1.574324
 H        -3.180895        -0.001363         0.530001
 H        -3.046766        -2.377515         0.091823
 H        -3.013578        -2.177552        -1.703554
 H        -1.535824        -1.978619        -0.831740
 H        -2.919233         0.285443        -2.413195
 H        -4.491602         0.055102        -1.531273
 H        -2.851393         3.773768        -1.903838
