19
Iteration:  3151charge 0 multiplicity 1
 C         1.176064         0.076740         0.772987
 C        -0.226653        -0.087003         0.395191
 C        -1.445890         0.005260         0.126517
 C        -2.708639        -0.386473        -0.477277
 C        -2.686146        -1.905366        -0.849538
 C        -2.860859         0.419134        -1.790408
 O        -2.416269         1.847468        -1.472644
 C        -3.003218         2.834114        -2.183707
 O        -3.609704         2.805937        -3.227269
 H         1.278545         0.008218         1.847734
 H         1.961351        -0.376266         0.170314
 H         1.377065         1.142479         0.588025
 H        -3.580728        -0.088544         0.077219
 H        -3.661680        -2.336912        -1.174420
 H        -1.834811        -1.955154        -1.580552
 H        -2.346040        -2.323917         0.090647
 H        -2.148257         0.099218        -2.537891
 H        -3.907600         0.417922        -2.275493
 H        -2.879265         3.724400        -1.563830
