19
Iteration:  3593charge 0 multiplicity 1
 C         1.534508        -0.406774         1.130024
 C         0.048646        -0.399812         0.609459
 C        -1.020085        -0.248120        -0.038207
 C        -2.346343        -0.119795        -0.525689
 C        -2.948063        -1.493353        -0.910530
 C        -2.340261         0.873908        -1.706372
 O        -3.191786         2.100181        -1.365826
 C        -3.758538         2.763256        -2.386659
 O        -3.578238         2.498086        -3.539946
 H         1.706974        -1.202593         1.814442
 H         2.038053        -0.578576         0.116451
 H         1.718456         0.581590         1.590377
 H        -2.965550         0.288987         0.318414
 H        -4.013509        -1.465505        -0.676949
 H        -2.711687        -1.695807        -2.002554
 H        -2.534528        -2.273159        -0.240707
 H        -1.374084         1.351573        -1.577247
 H        -2.473988         0.405093        -2.628072
 H        -4.345791         3.621278        -1.928919
