19
Iteration:  2113charge 0 multiplicity 1
 C         1.105354         0.821843        -0.037080
 C        -0.279636         0.431313        -0.086447
 C        -1.424508         0.125062        -0.287188
 C        -2.800352        -0.322943        -0.411620
 C        -2.857193        -1.806610        -0.810640
 C        -3.723349         0.451263        -1.447931
 O        -3.564385         1.848280        -1.189704
 C        -2.532262         2.410819        -1.966857
 O        -1.741409         1.828107        -2.673871
 H         1.777200         0.205268        -0.687733
 H         1.259134         1.925675        -0.188916
 H         1.376500         0.896345         1.028297
 H        -3.303789        -0.201978         0.587711
 H        -2.114593        -2.044150        -1.593111
 H        -2.578888        -2.348027         0.089618
 H        -3.880139        -2.141718        -0.942796
 H        -3.494266         0.130414        -2.489949
 H        -4.797050         0.238769        -1.220884
 H        -2.401412         3.404174        -1.805079
