19
Iteration:   711charge 0 multiplicity 1
 C         1.507649        -0.279226         0.661386
 C         0.135915        -0.050323         0.289798
 C        -1.022325         0.010414        -0.038884
 C        -2.516747        -0.002359        -0.338170
 C        -3.020316        -1.506748        -0.045657
 C        -2.861202         0.490976        -1.780565
 O        -2.340138         1.940796        -1.819872
 C        -3.198614         2.730341        -2.653949
 O        -4.282638         2.397828        -3.044351
 H         1.822143        -0.966269         1.516792
 H         1.937234        -0.757583        -0.238512
 H         2.082484         0.737451         0.753603
 H        -3.088648         0.725696         0.326403
 H        -2.447462        -1.924621         0.777358
 H        -4.071232        -1.538369         0.222019
 H        -3.055451        -2.125576        -0.956426
 H        -2.297054        -0.073707        -2.501603
 H        -3.903094         0.403936        -1.996802
 H        -2.538056         3.623712        -2.846870
