19
Iteration:  2424charge 0 multiplicity 1
 C         1.280456         0.197504         0.348265
 C        -0.220769         0.212708         0.341462
 C        -1.406271         0.043603        -0.049372
 C        -2.730737        -0.276134        -0.360262
 C        -2.668870        -1.753620        -0.790640
 C        -3.374697         0.456813        -1.529209
 O        -3.542420         1.905911        -1.342755
 C        -2.922354         2.732540        -2.244055
 O        -2.215423         2.259395        -3.121272
 H         1.711961         0.854114        -0.418116
 H         1.544547         0.598730         1.360968
 H         1.504367        -0.815167         0.269793
 H        -3.379418        -0.210439         0.548202
 H        -1.873996        -2.227098        -0.221965
 H        -3.580140        -2.328364        -0.758664
 H        -2.094322        -1.805384        -1.703704
 H        -2.959495         0.312895        -2.500033
 H        -4.437248         0.109843        -1.623954
 H        -3.003150         3.741094        -1.747498
