19
Iteration:  2820
 C         1.182155         0.109025         1.105382
 C        -0.060486        -0.141690         0.306036
 C        -1.100960        -0.103028        -0.307680
 C        -2.574414        -0.275677        -0.511112
 C        -2.883268        -1.762161        -0.934245
 C        -3.108869         0.659443        -1.533035
 O        -2.582146         1.963801        -1.261485
 C        -3.027003         2.774172        -2.309423
 O        -3.492339         2.470798        -3.393254
 H         1.604949         1.131406         0.940202
 H         0.983975        -0.318909         2.076565
 H         2.001401        -0.501296         0.579837
 H        -3.103625        -0.217437         0.446701
 H        -3.832289        -2.257422        -0.736647
 H        -2.634500        -2.017057        -1.985565
 H        -2.174021        -2.331832        -0.292490
 H        -2.739242         0.341130        -2.556663
 H        -4.211015         0.544337        -1.579460
 H        -3.041642         3.793057        -1.848636
