19
Iteration:  2907charge 0 multiplicity 1
 C         1.322007        -0.223998         0.791182
 C        -0.100160        -0.258691         0.608402
 C        -1.217236        -0.080814         0.240364
 C        -2.572099        -0.221080        -0.498883
 C        -2.720760        -1.756180        -0.674009
 C        -2.580653         0.587811        -1.882314
 O        -2.859216         1.915469        -1.396328
 C        -3.462804         2.812802        -2.311746
 O        -3.529166         2.813211        -3.527027
 H         1.940038         0.139411        -0.100744
 H         1.558881         0.501178         1.519326
 H         1.949124        -1.113482         1.149384
 H        -3.424372         0.187737         0.113870
 H        -3.438497        -1.863919        -1.556603
 H        -1.739906        -2.285714        -0.874030
 H        -3.097258        -2.209131         0.318905
 H        -1.591706         0.799568        -2.368274
 H        -3.437200         0.297449        -2.509380
 H        -3.755943         3.814030        -1.831291
