19
Iteration:  3000
 C         1.472687        -0.206862         1.111613
 C         0.129439        -0.238405         0.492535
 C        -1.034556        -0.259777        -0.032450
 C        -2.443824        -0.180142        -0.544042
 C        -2.979534        -1.586683        -0.999804
 C        -2.678335         0.764234        -1.662999
 O        -3.161982         2.072591        -1.235879
 C        -3.450488         2.807555        -2.360236
 O        -3.435189         2.420908        -3.510046
 H         1.990419        -1.064755         0.665346
 H         2.049338         0.750475         0.663450
 H         1.505759        -0.293184         2.200566
 H        -3.128954         0.180668         0.308076
 H        -4.040606        -1.531968        -0.876111
 H        -2.795468        -1.735116        -2.042500
 H        -2.491376        -2.282745        -0.401490
 H        -1.759141         0.858128        -2.246502
 H        -3.618773         0.395629        -2.102795
 H        -3.569860         3.862401        -1.925272
