19
Iteration:  4643charge 0 multiplicity 1
 C         1.502205        -0.862216         0.996208
 C         0.146133        -0.525366         0.466326
 C        -0.898479        -0.014180         0.174344
 C        -2.343077         0.124199        -0.283247
 C        -2.823966        -1.175796        -0.593622
 C        -2.346852         1.316898        -1.364376
 O        -3.484749         1.098232        -2.296072
 C        -3.802159         2.277095        -3.029053
 O        -3.473879         3.429758        -2.791519
 H         1.515800        -1.033688         2.131856
 H         1.822502        -1.793853         0.428530
 H         2.195769        -0.131686         0.732531
 H        -2.836925         0.509786         0.687130
 H        -3.765730        -1.238449        -1.188008
 H        -2.121445        -1.850405        -1.225447
 H        -3.066522        -1.855459         0.273203
 H        -2.611084         2.277392        -0.822618
 H        -1.531795         1.259901        -2.038984
 H        -4.707580         1.963376        -3.625210
