19
Iteration:   923
 C         1.365029         0.016997         0.846820
 C        -0.031040        -0.043260         0.260678
 C        -1.181868        -0.024592        -0.155826
 C        -2.540590        -0.064358        -0.702371
 C        -3.148099        -1.378618        -0.127449
 C        -2.625883         0.378033        -2.186213
 O        -2.097023         1.700677        -2.320632
 C        -3.103646         2.681389        -2.310095
 O        -4.271806         2.430122        -2.186500
 H         1.986893        -0.230914        -0.033537
 H         1.695342         1.061294         1.144931
 H         1.522815        -0.770743         1.805528
 H        -3.037653         0.657061        -0.003964
 H        -2.734491        -1.487450         0.889671
 H        -4.232790        -1.356931        -0.068122
 H        -2.825849        -2.304416        -0.567403
 H        -2.038789        -0.196618        -2.939745
 H        -3.699689         0.333621        -2.570621
 H        -2.764799         3.642957        -2.687339
