19
Iteration:  2765charge 0 multiplicity 1
 C         1.172725         0.324407         0.997344
 C        -0.009684         0.052936         0.218528
 C        -1.140719        -0.310173        -0.257328
 C        -2.530222        -0.499065        -0.467174
 C        -3.004051        -1.847769        -0.970627
 C        -3.231310         0.607214        -1.406650
 O        -2.719993         1.955876        -1.194309
 C        -2.753656         2.706735        -2.363893
 O        -3.420174         2.633014        -3.372868
 H         0.911307         1.301014         1.583495
 H         1.491863        -0.514425         1.750153
 H         2.138769         0.584882         0.381107
 H        -3.107564        -0.428000         0.463158
 H        -3.966162        -1.799045        -1.442329
 H        -2.409171        -2.233426        -1.775305
 H        -3.034064        -2.796796        -0.495649
 H        -2.957503         0.418243        -2.499673
 H        -4.248607         0.569946        -1.091664
 H        -1.827023         3.305074        -2.436177
