19
Iteration:  1342
 C         1.041857         0.631688         0.819837
 C        -0.289776         0.299569         0.287538
 C        -1.410399        -0.010448        -0.181895
 C        -2.655658        -0.314800        -0.834375
 C        -3.125929        -1.787045        -0.542577
 C        -2.808203         0.283083        -2.368328
 O        -2.139352         1.408823        -2.620714
 C        -2.699386         2.619571        -2.116675
 O        -3.600750         2.600897        -1.329084
 H         1.692960        -0.228153         0.771175
 H         1.346446         1.348035         0.069471
 H         0.936694         1.105262         1.859137
 H        -3.433674         0.264710        -0.314695
 H        -4.163706        -1.683133        -0.170007
 H        -3.166279        -2.441615        -1.416048
 H        -2.539208        -2.371486         0.121573
 H        -2.451664        -0.497440        -3.075660
 H        -3.916314         0.454018        -2.540042
 H        -2.294711         3.460359        -2.485225
