19
Iteration:  3527
 C         1.228755        -0.249168         1.301413
 C         0.157898        -0.301227         0.316720
 C        -0.933134        -0.219164        -0.144713
 C        -2.319528        -0.201302        -0.654164
 C        -3.057120        -1.585028        -0.738714
 C        -2.396664         0.725244        -1.861555
 O        -2.911248         1.946744        -1.365046
 C        -3.517725         2.793499        -2.255259
 O        -3.783724         2.630743        -3.445159
 H         1.838136        -1.132665         1.396911
 H         2.097166         0.490751         0.987989
 H         1.010372         0.132482         2.298391
 H        -2.905134         0.402184         0.089025
 H        -3.947238        -1.205232        -1.289873
 H        -2.483681        -2.392361        -1.329201
 H        -3.522576        -1.997489         0.184387
 H        -1.326035         0.885858        -2.195311
 H        -3.054274         0.525832        -2.691768
 H        -3.765765         3.730301        -1.700196
