19
Iteration:  2837
 C         1.217820        -0.047344         1.010064
 C        -0.067111         0.002670         0.370359
 C        -1.173295        -0.106234        -0.161298
 C        -2.540387        -0.355570        -0.473872
 C        -2.813620        -1.809669        -0.868717
 C        -2.999988         0.576251        -1.661890
 O        -2.696349         2.024660        -1.359420
 C        -3.093869         2.890476        -2.288870
 O        -3.494590         2.490829        -3.353673
 H         1.733890         0.898679         0.878397
 H         1.142074        -0.103777         2.136297
 H         1.952286        -0.820852         0.784691
 H        -3.106177        -0.009867         0.415750
 H        -3.925521        -2.047324        -0.738129
 H        -2.676434        -2.003082        -1.958606
 H        -2.256892        -2.623457        -0.439968
 H        -2.428199         0.290237        -2.524497
 H        -4.073505         0.660927        -1.792599
 H        -2.879177         3.945361        -2.100201
