19
Iteration:  1133
 C         1.041173         0.722658         0.691718
 C        -0.290709         0.275896         0.267738
 C        -1.360693         0.081890        -0.378312
 C        -2.726868        -0.325562        -0.857120
 C        -3.300974        -1.647107        -0.428100
 C        -2.798719         0.128751        -2.322557
 O        -2.029781         1.391119        -2.546687
 C        -2.645387         2.546255        -2.014550
 O        -3.615781         2.530826        -1.282364
 H         1.087273         1.639625         1.139503
 H         1.758354         0.103462         1.198774
 H         1.381645         0.897769        -0.310171
 H        -3.472846         0.364908        -0.376535
 H        -3.009131        -1.927206         0.571383
 H        -4.361486        -1.592816        -0.681637
 H        -2.876459        -2.419750        -1.106224
 H        -2.474553        -0.658589        -3.056975
 H        -3.865115         0.411032        -2.560316
 H        -2.052887         3.256570        -2.667062
