19
Iteration:  4907charge 0 multiplicity 1
 C         1.194635         0.103871         1.194836
 C        -0.055991        -0.111746         0.436944
 C        -0.971267        -0.329552        -0.284918
 C        -2.303286         0.097308        -0.814535
 C        -3.314754        -1.030265        -0.619148
 C        -2.231496         0.458493        -2.295004
 O        -3.412784         1.115405        -2.767752
 C        -3.605941         2.327757        -2.294294
 O        -2.906697         2.951624        -1.473675
 H         2.170346         0.149744         0.684282
 H         1.117106         1.074297         1.822243
 H         1.272234        -0.713181         1.888219
 H        -2.429550         1.024636        -0.216347
 H        -4.249071        -0.775962        -1.182885
 H        -2.927822        -1.882373        -1.149663
 H        -3.423908        -1.355774         0.412645
 H        -1.422183         1.158508        -2.268834
 H        -2.151260        -0.390722        -3.000649
 H        -4.606039         2.663457        -2.642604
