19
Iteration:  2263charge 0 multiplicity 1
 C         0.829757         1.082904         0.019323
 C        -0.303906         0.247348        -0.213759
 C        -1.478418        -0.214683        -0.152771
 C        -2.869118        -0.610224        -0.339331
 C        -3.261372        -2.054653        -0.510585
 C        -3.319639         0.329223        -1.518053
 O        -3.218826         1.794631        -1.180568
 C        -2.416378         2.563987        -1.973673
 O        -1.768823         2.448117        -2.986442
 H         1.190455         1.395103         1.032951
 H         1.682688         0.528493        -0.285273
 H         0.767955         2.100622        -0.479383
 H        -3.390931        -0.291816         0.559968
 H        -3.974042        -2.527569         0.204424
 H        -3.706174        -2.112892        -1.516794
 H        -2.381248        -2.690285        -0.383571
 H        -2.786434         0.115293        -2.404692
 H        -4.372968         0.120516        -1.738692
 H        -2.576886         3.575056        -1.672104
