19
Iteration:  2535charge 0 multiplicity 1
 C         1.257886         0.367773         0.700769
 C        -0.078889         0.034406         0.144764
 C        -1.163836        -0.022911        -0.369587
 C        -2.608459        -0.333170        -0.480897
 C        -2.908400        -1.846444        -0.648225
 C        -3.384930         0.434299        -1.630261
 O        -3.326641         1.814016        -1.211660
 C        -2.926666         2.660939        -2.127335
 O        -2.570413         2.570129        -3.278268
 H         1.980946        -0.426502         0.424787
 H         1.985881         1.230856         0.577567
 H         1.232042         0.157025         1.746197
 H        -3.050384         0.073120         0.465292
 H        -3.911863        -2.065068        -0.214461
 H        -2.921554        -1.977106        -1.728630
 H        -2.111444        -2.486226        -0.214817
 H        -2.835362         0.270810        -2.594667
 H        -4.421068         0.083333        -1.618174
 H        -3.044408         3.691812        -1.714041
