19
Iteration:   856
 C         1.543601        -0.097577         0.711383
 C         0.085929         0.046341         0.346525
 C        -1.104813        -0.164710         0.146397
 C        -2.447325        -0.040130        -0.453493
 C        -3.313153        -1.253289        -0.330597
 C        -2.630852         0.408983        -2.002079
 O        -2.150422         1.779954        -2.218208
 C        -3.193007         2.680114        -2.384284
 O        -4.387936         2.341882        -2.495287
 H         2.106964         0.682585         0.118427
 H         1.942259         0.050102         1.729194
 H         2.031824        -1.081387         0.191349
 H        -2.978985         0.781761         0.079039
 H        -3.326813        -1.879582         0.546808
 H        -4.338569        -0.939054        -0.468637
 H        -3.059825        -1.997388        -1.037372
 H        -1.969007        -0.202296        -2.637639
 H        -3.633437         0.372973        -2.438372
 H        -2.672808         3.533890        -2.703146
