19
Iteration:  4192
 C         1.313337        -1.226736         1.239836
 C         0.199641        -0.494790         0.595985
 C        -0.755875         0.122893         0.042349
 C        -2.115102         0.332336        -0.538075
 C        -2.601913        -0.924826        -1.256821
 C        -2.296596         1.638931        -1.247523
 O        -3.677861         1.953053        -1.306695
 C        -4.108493         2.091848        -2.606005
 O        -3.462927         2.215413        -3.643958
 H         1.553030        -1.033373         2.333436
 H         1.260214        -2.254268         1.000254
 H         2.249872        -0.797705         0.907534
 H        -2.665867         0.301155         0.441431
 H        -2.611594        -0.657205        -2.400666
 H        -1.748521        -1.452842        -0.981051
 H        -3.607480        -1.144515        -0.876106
 H        -1.890822         2.441763        -0.754749
 H        -1.910658         1.681641        -2.300501
 H        -5.241164         1.974329        -2.559740
