19
Iteration:  3947charge 0 multiplicity 1
 C         1.502822        -0.405588         0.632622
 C         0.070197        -0.419607         0.323233
 C        -1.149044        -0.407692         0.190545
 C        -2.504647         0.069827        -0.337421
 C        -3.064801        -0.942532        -1.317796
 C        -2.274222         1.414239        -0.860685
 O        -3.425927         2.164259        -1.300161
 C        -3.748367         2.264331        -2.552748
 O        -3.074469         1.810100        -3.477310
 H         2.130796        -0.568065        -0.228991
 H         1.833471         0.612053         1.031548
 H         1.950570        -1.099884         1.431500
 H        -3.294550         0.173404         0.489324
 H        -3.648889        -0.324942        -1.971585
 H        -2.177815        -1.460846        -1.700644
 H        -3.763209        -1.680022        -0.963816
 H        -1.946111         2.020637        -0.063328
 H        -1.490844         1.384781        -1.574281
 H        -4.802215         2.685922        -2.577659
