19
Iteration:  4824
 C         1.224585        -0.444640         1.132491
 C         0.076682         0.111355         0.358454
 C        -1.105388         0.145645        -0.022669
 C        -2.413070         0.197645        -0.636983
 C        -3.053415        -1.192156        -0.600465
 C        -2.202960         0.532525        -2.135091
 O        -3.392819         1.026541        -2.780580
 C        -3.674869         2.381469        -2.484388
 O        -3.102911         3.047478        -1.671303
 H         2.087869         0.168731         0.966428
 H         0.999585        -0.514782         2.191026
 H         1.499467        -1.519551         0.861769
 H        -3.040262         0.947048        -0.124874
 H        -3.996668        -1.220757        -1.050436
 H        -2.311766        -1.930364        -1.091776
 H        -3.305647        -1.355827         0.457013
 H        -1.358160         1.253238        -2.078948
 H        -1.724429        -0.307267        -2.625986
 H        -4.366719         2.747608        -3.242654
