19
Iteration:  1121
 C         1.066545         0.709896         0.686784
 C        -0.234614         0.236754         0.255846
 C        -1.330871         0.087470        -0.301522
 C        -2.695328        -0.200404        -0.837681
 C        -3.279587        -1.660117        -0.442731
 C        -2.858541         0.137340        -2.352487
 O        -2.109869         1.410641        -2.572979
 C        -2.641149         2.482289        -2.061716
 O        -3.612934         2.499970        -1.317061
 H         0.967790         1.392501         1.485372
 H         1.501327        -0.208879         1.106833
 H         1.716029         1.078409        -0.046610
 H        -3.295024         0.611396        -0.362054
 H        -3.430780        -1.716097         0.635127
 H        -4.312111        -1.813391        -0.794825
 H        -2.622353        -2.511380        -0.786841
 H        -2.318180        -0.496143        -3.103045
 H        -3.948874         0.287842        -2.620589
 H        -2.211448         3.506165        -2.247657
