19
Iteration:  2265
 C         0.835071         1.083763         0.033542
 C        -0.300281         0.237119        -0.208410
 C        -1.472200        -0.213211        -0.174741
 C        -2.864664        -0.610148        -0.334346
 C        -3.275348        -2.046559        -0.505172
 C        -3.322846         0.317660        -1.514000
 O        -3.213086         1.782182        -1.184990
 C        -2.411770         2.563572        -1.964797
 O        -1.777657         2.460277        -2.987296
 H         1.138561         1.458571         0.980503
 H         1.655929         0.531101        -0.282437
 H         0.809413         2.079290        -0.459212
 H        -3.413401        -0.237898         0.551412
 H        -3.943079        -2.525186         0.224399
 H        -3.681593        -2.124602        -1.498424
 H        -2.417090        -2.675344        -0.429122
 H        -2.769002         0.123083        -2.456657
 H        -4.366753         0.125866        -1.716587
 H        -2.595274         3.601705        -1.762635
