19
Iteration:  4098
 C         1.557400        -0.885985         0.963769
 C         0.115241        -0.564308         0.698668
 C        -0.952134        -0.173070         0.245850
 C        -2.285638         0.265419        -0.398458
 C        -2.797278        -0.909947        -1.357970
 C        -2.174239         1.651412        -1.134997
 O        -3.557630         2.094753        -1.359170
 C        -4.047421         2.163233        -2.594464
 O        -3.467664         2.002124        -3.669931
 H         1.797474        -1.734908         1.549061
 H         2.049340        -1.091239        -0.034636
 H         2.045845        -0.221493         1.649246
 H        -2.980722         0.423433         0.381433
 H        -2.116470        -1.748456        -1.114301
 H        -3.766258        -1.343404        -1.049832
 H        -2.589944        -0.654941        -2.375707
 H        -1.565394         2.456188        -0.613915
 H        -1.696281         1.444427        -2.172782
 H        -5.013397         2.581152        -2.459141
