19
Iteration:  1542
 C         1.309430        -0.008774         1.008009
 C        -0.080071         0.100762         0.540431
 C        -1.127007         0.062888        -0.105627
 C        -2.457515        -0.120003        -0.748976
 C        -3.073859        -1.528651        -0.450740
 C        -2.516857         0.358007        -2.221496
 O        -2.116678         1.808442        -2.239117
 C        -3.171809         2.630374        -2.339661
 O        -4.365258         2.413528        -2.224532
 H         1.818754         0.898536         1.365960
 H         1.398697        -0.801279         1.740177
 H         1.812275        -0.370446         0.084006
 H        -3.254990         0.541410        -0.292103
 H        -4.063501        -1.229323        -0.226425
 H        -2.927824        -2.161744        -1.346825
 H        -2.687608        -1.969667         0.499524
 H        -1.763235        -0.222968        -2.799965
 H        -3.507446         0.343626        -2.694749
 H        -2.927191         3.718397        -2.722441
