19
Iteration:  4876
 C         1.272117        -0.076130         1.163849
 C        -0.074901        -0.169655         0.570219
 C        -1.025095         0.053586        -0.151965
 C        -2.281650         0.041641        -0.946221
 C        -3.267934        -1.159996        -0.448342
 C        -2.185028         0.489261        -2.478033
 O        -3.431124         1.155728        -2.818760
 C        -3.599715         2.361377        -2.310469
 O        -2.985742         2.953273        -1.489747
 H         2.037225         0.253856         0.525186
 H         1.194305         0.520044         2.134222
 H         1.501482        -1.015648         1.639333
 H        -2.807196         0.979806        -0.526700
 H        -4.111729        -1.143467        -1.157531
 H        -2.683349        -2.123939        -0.519205
 H        -3.616260        -0.953838         0.585814
 H        -1.420734         1.146219        -2.395434
 H        -2.013468        -0.295213        -3.208941
 H        -4.684741         2.629982        -2.561122
