19
Iteration:  1353charge 0 multiplicity 1
 C         1.028770         0.570641         0.832993
 C        -0.309309         0.242331         0.329634
 C        -1.328210         0.020322        -0.259414
 C        -2.673601        -0.231314        -0.831261
 C        -3.129755        -1.755704        -0.542842
 C        -2.869591         0.185201        -2.356702
 O        -2.071084         1.501786        -2.634181
 C        -2.781927         2.580251        -2.193826
 O        -3.622906         2.564161        -1.283279
 H         1.744361        -0.128810         1.187679
 H         1.623018         1.245207         0.233385
 H         0.953892         1.227185         1.785307
 H        -3.288670         0.438459        -0.221648
 H        -3.996288        -1.775734         0.139386
 H        -3.387645        -2.148602        -1.512040
 H        -2.337188        -2.222517        -0.024099
 H        -2.415091        -0.536435        -3.072567
 H        -3.959626         0.370140        -2.607406
 H        -2.274346         3.358605        -2.589430
