19
Iteration:  4456
 C         1.459745        -0.291634         1.191265
 C         0.252655        -0.246842         0.342360
 C        -0.929288        -0.364817        -0.048275
 C        -2.347334        -0.132476        -0.491566
 C        -3.198538        -1.217009        -1.271969
 C        -2.218768         1.135293        -1.292052
 O        -3.680408         1.599346        -1.415047
 C        -3.814558         2.456774        -2.463805
 O        -3.039439         2.672239        -3.356263
 H         2.288250        -1.029847         0.788515
 H         1.977886         0.664936         1.319290
 H         1.024372        -0.687872         2.133567
 H        -2.857524         0.071723         0.429102
 H        -3.909024        -0.913840        -2.053918
 H        -2.357577        -1.993763        -1.532137
 H        -3.857777        -1.642400        -0.471694
 H        -1.703904         1.873185        -0.685595
 H        -1.924034         0.753129        -2.232773
 H        -4.838535         2.714494        -2.587961
