19
Iteration:   559charge 0 multiplicity 1
 C         1.440645        -0.044090         0.181677
 C         0.018820        -0.055091         0.059499
 C        -1.160849         0.090894         0.079652
 C        -2.576930        -0.052214        -0.075087
 C        -3.134844        -1.476070        -0.021577
 C        -2.853159         0.346081        -1.489751
 O        -2.599207         1.859644        -1.485641
 C        -3.083827         2.685065        -2.510361
 O        -3.692906         2.405851        -3.511950
 H         1.857715        -0.195956        -0.722093
 H         1.829188         0.785723         0.732495
 H         1.866689        -0.977688         0.819621
 H        -3.083690         0.644345         0.589792
 H        -2.664020        -2.216745         0.674635
 H        -4.195576        -1.493035         0.274502
 H        -2.922323        -2.013281        -0.989703
 H        -2.265161        -0.266242        -2.240637
 H        -3.935451         0.173885        -1.493028
 H        -2.832628         3.614992        -2.022809
