19
Iteration:  4055charge 0 multiplicity 1
 C         1.478993        -0.622630         0.981924
 C         0.121025        -0.451809         0.422035
 C        -1.017053        -0.297686         0.021384
 C        -2.322053         0.179755        -0.376339
 C        -3.087443        -0.784092        -1.403219
 C        -2.085616         1.555842        -1.023474
 O        -3.396230         2.061044        -1.243792
 C        -3.911609         2.087267        -2.526951
 O        -3.333295         1.887476        -3.570248
 H         1.764736        -1.584925         1.183655
 H         2.223175        -0.075742         0.317146
 H         1.434163         0.005282         1.931791
 H        -3.014567         0.238692         0.441884
 H        -3.550481        -1.646932        -0.888345
 H        -4.052859        -0.451229        -1.832951
 H        -2.478961        -1.304173        -2.109604
 H        -1.523548         2.281244        -0.401457
 H        -1.515771         1.263738        -1.951301
 H        -4.960440         2.311058        -2.448122
