19
Iteration:  3425
 C         1.208594        -0.183216         1.140133
 C        -0.147120        -0.012065         0.561173
 C        -1.269205        -0.138783         0.157412
 C        -2.588583        -0.275035        -0.464218
 C        -2.656011        -1.809885        -1.089002
 C        -2.826453         0.630562        -1.763281
 O        -2.401246         2.002621        -1.571166
 C        -3.015516         2.803712        -2.460284
 O        -4.017876         2.627058        -3.164657
 H         1.939624        -0.198475         0.193420
 H         1.594319         0.738989         1.490363
 H         1.593405        -1.073128         1.657702
 H        -3.442878         0.111605         0.212637
 H        -3.715250        -2.028458        -1.273917
 H        -2.096166        -1.684582        -1.988525
 H        -2.245798        -2.449361        -0.305445
 H        -2.346301         0.216768        -2.655560
 H        -3.865953         0.592043        -1.768081
 H        -2.409701         3.760981        -2.401466
