19
Iteration:  3141
 C         1.206025         0.041396         0.839110
 C        -0.218563        -0.008621         0.371798
 C        -1.402801         0.008942         0.098170
 C        -2.734701        -0.366350        -0.567511
 C        -2.643523        -1.894239        -0.760907
 C        -2.829579         0.471346        -1.813406
 O        -2.432461         1.771714        -1.425660
 C        -3.123229         2.857834        -2.157806
 O        -3.596565         2.842689        -3.297008
 H         1.437501        -0.408468         1.784774
 H         1.664476        -0.631352         0.089139
 H         1.500169         1.048197         0.755101
 H        -3.569385        -0.195614         0.090764
 H        -3.560744        -2.366385        -1.186857
 H        -1.912525        -2.166172        -1.556327
 H        -2.388588        -2.498725         0.098751
 H        -2.262631        -0.040157        -2.607802
 H        -3.943997         0.560414        -1.955077
 H        -2.764096         3.794884        -1.696415
