19
Iteration:  4528charge 0 multiplicity 1
 C         1.568053        -0.669338         0.966789
 C         0.173304        -0.447141         0.524635
 C        -0.977601        -0.088105         0.285265
 C        -2.327996        -0.002946        -0.294521
 C        -2.774598        -1.338937        -1.039761
 C        -2.369990         1.178460        -1.272545
 O        -3.815362         1.551672        -1.765013
 C        -3.979986         2.425335        -2.790320
 O        -3.050594         3.016739        -3.254046
 H         1.872091        -1.653228         1.081260
 H         2.298633        -0.292853         0.249691
 H         1.618806        -0.122062         1.968769
 H        -3.134499         0.252084         0.436504
 H        -3.844892        -1.316650        -1.367749
 H        -2.150732        -1.596216        -1.821522
 H        -2.773608        -2.185777        -0.324021
 H        -2.035681         1.973034        -0.643577
 H        -1.894259         0.956022        -2.287215
 H        -5.072732         2.443606        -3.181446
