19
Iteration:   828
 C         1.472075        -0.144443         0.578013
 C        -0.011707        -0.065379         0.459290
 C        -1.037097        -0.091177        -0.157573
 C        -2.468703        -0.038138        -0.391269
 C        -3.275836        -1.308024        -0.220399
 C        -2.554347         0.477845        -1.849175
 O        -2.156214         1.887395        -2.029098
 C        -3.215765         2.637345        -2.616102
 O        -4.369638         2.325627        -2.545561
 H         1.827460         0.962326         0.623615
 H         1.820397        -0.535542         1.576505
 H         2.012375        -0.702654        -0.102211
 H        -2.883659         0.728356         0.279985
 H        -3.568342        -1.547468         0.848030
 H        -4.229268        -1.436863        -0.841246
 H        -2.677510        -2.250662        -0.549012
 H        -1.787708        -0.051776        -2.467856
 H        -3.537026         0.374189        -2.387889
 H        -2.695207         3.665349        -3.050654
