19
Iteration:  2988
 C         1.415928        -0.230142         1.008657
 C         0.096221        -0.178441         0.458612
 C        -1.085850        -0.217700         0.099745
 C        -2.366409        -0.207858        -0.502356
 C        -2.966086        -1.518883        -0.975173
 C        -2.634656         0.739747        -1.720595
 O        -3.188562         1.992192        -1.238734
 C        -3.342803         2.828958        -2.337908
 O        -3.483120         2.429437        -3.482701
 H         1.984736        -1.073512         0.583160
 H         2.109630         0.757230         0.973072
 H         1.340606        -0.455060         2.057141
 H        -3.065533         0.227758         0.280662
 H        -4.030208        -1.525789        -0.928933
 H        -2.667769        -1.749690        -1.992583
 H        -2.742616        -2.389817        -0.423382
 H        -1.837923         0.995563        -2.403579
 H        -3.254502         0.225175        -2.514347
 H        -3.715345         3.889099        -2.091341
