19
Iteration:  2132
 C         1.070222         0.847608        -0.052378
 C        -0.341440         0.392845        -0.221579
 C        -1.585096         0.271461        -0.226886
 C        -2.865827        -0.362374        -0.431200
 C        -2.780282        -1.876652        -0.801220
 C        -3.718827         0.436974        -1.390821
 O        -3.480943         1.881648        -1.209466
 C        -2.482752         2.392265        -1.935741
 O        -1.671439         1.806241        -2.619667
 H         1.653547         0.035262        -0.428770
 H         1.232418         1.727208        -0.620354
 H         1.437333         1.162122         1.038552
 H        -3.343235        -0.295102         0.583390
 H        -2.641176        -1.860412        -1.862373
 H        -1.978195        -2.386499        -0.279726
 H        -3.736948        -2.385023        -0.594192
 H        -3.370479         0.229988        -2.373756
 H        -4.789217         0.208262        -1.249302
 H        -2.767967         3.549110        -1.839273
