19
Iteration:  1632charge 0 multiplicity 1
 C         1.460188        -0.068406         0.803910
 C         0.026505         0.035631         0.519992
 C        -1.097431        -0.143464         0.033414
 C        -2.513767        -0.041379        -0.491410
 C        -3.231136        -1.561291        -0.561038
 C        -2.395398         0.515868        -1.905783
 O        -2.242589         2.026454        -1.836022
 C        -3.267790         2.669314        -2.432219
 O        -4.322047         2.244960        -2.856430
 H         2.123995         0.375966        -0.007404
 H         1.591009         0.574121         1.717510
 H         1.684981        -1.046552         1.093468
 H        -3.171530         0.658679         0.135721
 H        -2.491340        -2.407942        -0.519038
 H        -4.055462        -1.719380         0.120617
 H        -3.860970        -1.726627        -1.467273
 H        -1.582165         0.181936        -2.523026
 H        -3.324259         0.283411        -2.383392
 H        -2.881612         3.840618        -2.323376
