19
Iteration:  1846
 C         1.494080         0.096028         0.675824
 C         0.024616         0.031671         0.420362
 C        -1.134201        -0.115056        -0.010712
 C        -2.639072        -0.185990        -0.294220
 C        -2.895901        -1.766329        -0.699253
 C        -3.103760         0.564098        -1.552896
 O        -2.918837         2.010054        -1.281295
 C        -3.076400         2.727214        -2.455852
 O        -3.433410         2.333064        -3.530186
 H         1.775076        -0.227458         1.664112
 H         2.050256        -0.602005         0.119069
 H         2.031133         1.111953         0.687915
 H        -3.278879         0.095144         0.578084
 H        -1.984008        -2.225295        -1.087516
 H        -2.898924        -2.377320         0.209662
 H        -3.849796        -1.931535        -1.204565
 H        -2.589712         0.274175        -2.534093
 H        -4.187478         0.540904        -1.729203
 H        -2.690807         3.868582        -2.357132
