19
Iteration:   719
 C         1.554334        -0.307250         0.588889
 C         0.090338         0.009489         0.374132
 C        -1.087104         0.039444        -0.004435
 C        -2.463645        -0.032317        -0.414363
 C        -3.014427        -1.453287        -0.061851
 C        -2.843090         0.495965        -1.845059
 O        -2.384282         1.893656        -1.827872
 C        -3.155516         2.699044        -2.586314
 O        -4.271345         2.401313        -3.018473
 H         1.640770        -0.822605         1.666962
 H         2.031140        -1.010338        -0.128636
 H         1.994154         0.607129         0.713925
 H        -2.974573         0.559607         0.306377
 H        -2.416588        -1.876203         0.766705
 H        -3.977688        -1.186463         0.340833
 H        -2.961674        -2.213359        -0.844785
 H        -2.351116        -0.026241        -2.657044
 H        -3.928983         0.460204        -1.982925
 H        -2.766744         3.614615        -2.897326
