19
Iteration:   946
 C         1.325047         0.020494         0.862739
 C        -0.028097         0.127216         0.283747
 C        -1.092010         0.021960        -0.285782
 C        -2.478786        -0.022583        -0.641576
 C        -3.218903        -1.506415        -0.215215
 C        -2.695933         0.292169        -2.089983
 O        -2.139449         1.678936        -2.419586
 C        -3.056033         2.654066        -2.378795
 O        -4.204108         2.481328        -2.034316
 H         1.873686        -0.719739         0.289508
 H         1.974999         0.948237         0.999766
 H         1.024616        -0.452640         1.962327
 H        -2.892772         0.823190        -0.006347
 H        -3.444199        -1.560127         0.858414
 H        -4.115517        -1.625112        -0.810477
 H        -2.512063        -2.312140        -0.407401
 H        -2.196820        -0.401893        -2.807721
 H        -3.809470         0.268750        -2.292974
 H        -2.687409         3.657604        -2.583312
