19
Iteration:  4921charge 0 multiplicity 1
 C         1.184907         0.146053         1.248992
 C         0.091366        -0.132211         0.306041
 C        -0.937669        -0.304232        -0.281455
 C        -2.321746         0.024025        -0.701598
 C        -3.446126        -1.058499        -0.722392
 C        -2.175940         0.466992        -2.239412
 O        -3.410365         1.063647        -2.758001
 C        -3.623722         2.397599        -2.265233
 O        -2.887705         2.968857        -1.504880
 H         2.082930         0.126739         0.704654
 H         1.004222         1.204891         1.608385
 H         1.197437        -0.436275         2.188696
 H        -2.794520         0.896987        -0.106089
 H        -4.358850        -0.526217        -0.903148
 H        -3.228568        -1.831368        -1.573185
 H        -3.547310        -1.569567         0.277175
 H        -1.377394         1.095663        -2.449454
 H        -2.014334        -0.517974        -2.696399
 H        -4.658695         2.773434        -2.614654
