19
Iteration:  4613
 C         1.422593        -0.919848         0.851124
 C         0.116015        -0.349280         0.612659
 C        -0.976820         0.021322         0.353768
 C        -2.325562         0.153902        -0.179054
 C        -2.749745        -1.183998        -0.821120
 C        -2.294572         1.301198        -1.366668
 O        -3.546002         1.134848        -2.161888
 C        -3.850640         2.212414        -2.994617
 O        -3.379451         3.324486        -2.882474
 H         1.390567        -1.487507         1.805885
 H         1.660270        -1.512421        -0.102451
 H         2.311623        -0.249602         0.887354
 H        -3.021132         0.458932         0.607643
 H        -3.900380        -1.248554        -0.749702
 H        -2.356175        -1.105657        -1.830245
 H        -2.326439        -2.050451        -0.232817
 H        -2.081453         2.315731        -1.068292
 H        -1.513253         0.981657        -2.082219
 H        -4.694571         1.961681        -3.634972
