19
Iteration:  3233
 C         1.086268         0.584368         0.799391
 C        -0.207844         0.055911         0.368666
 C        -1.209082        -0.485308        -0.031636
 C        -2.646576        -0.451322        -0.507788
 C        -3.220193        -1.772513        -1.062230
 C        -2.703213         0.529659        -1.714075
 O        -2.186832         1.761070        -1.406242
 C        -2.904585         2.730801        -2.141980
 O        -3.678442         2.577808        -3.070424
 H         1.187803         1.268679         1.654190
 H         1.510796        -0.262579         1.437623
 H         1.718603         1.076308         0.061986
 H        -3.338679         0.059221         0.233063
 H        -4.063283        -1.513026        -1.684012
 H        -2.605285        -2.443667        -1.643020
 H        -3.566875        -2.394824        -0.235714
 H        -2.051925         0.278696        -2.626821
 H        -3.732497         0.654032        -2.049122
 H        -2.756490         3.778638        -1.672921
