19
Iteration:  1673charge 0 multiplicity 1
 C         1.415164        -0.058554         0.818623
 C         0.058594        -0.168256         0.465083
 C        -1.097639        -0.064417         0.077264
 C        -2.452351        -0.053212        -0.460303
 C        -3.122047        -1.535230        -0.504542
 C        -2.503360         0.543463        -1.868921
 O        -2.364983         1.982508        -1.705112
 C        -3.337850         2.735523        -2.406281
 O        -4.221681         2.299120        -3.127330
 H         2.130029        -0.249062        -0.017438
 H         1.794401         0.860125         1.257109
 H         1.652554        -0.743141         1.701906
 H        -3.017858         0.619112         0.204163
 H        -2.992350        -2.030344        -1.486867
 H        -2.445091        -2.174499         0.110049
 H        -4.244966        -1.687029        -0.335644
 H        -1.714425         0.139393        -2.566281
 H        -3.474536         0.415914        -2.376396
 H        -3.059295         3.784538        -2.260428
