19
Iteration:  2037
 C         1.093725         0.741926         0.183103
 C        -0.215538         0.298898        -0.084075
 C        -1.354188        -0.047532        -0.256023
 C        -2.812962        -0.413788        -0.321269
 C        -2.977960        -1.919964        -0.498007
 C        -3.430937         0.367600        -1.476428
 O        -3.246610         1.773013        -1.179919
 C        -2.735800         2.591248        -2.130281
 O        -2.104248         2.286440        -3.080408
 H         1.508831         1.268577        -0.703591
 H         1.019900         1.376406         1.110676
 H         1.808263        -0.036270         0.384757
 H        -3.281567        -0.057580         0.599282
 H        -2.079947        -2.525083        -0.351627
 H        -3.859487        -2.262854         0.054571
 H        -3.172143        -2.022058        -1.578786
 H        -2.801195         0.088279        -2.315768
 H        -4.539936         0.245446        -1.683940
 H        -2.977584         3.776364        -1.979019
