19
Iteration:  2371charge 0 multiplicity 1
 C         1.154197         0.583629         0.303731
 C        -0.250053         0.227873         0.003738
 C        -1.429308        -0.004945        -0.048138
 C        -2.793291        -0.352711        -0.320546
 C        -2.972047        -1.917864        -0.654640
 C        -3.336588         0.330071        -1.602575
 O        -3.332917         1.741230        -1.279952
 C        -2.726850         2.687746        -2.101733
 O        -2.070228         2.430559        -3.096911
 H         1.201095         1.704580         0.317320
 H         1.588588         0.269687         1.281828
 H         1.731771        -0.025785        -0.364395
 H        -3.465862        -0.147436         0.526388
 H        -2.188108        -2.627681        -0.230711
 H        -3.959137        -2.237969        -0.219016
 H        -3.105797        -2.007152        -1.769861
 H        -2.678957         0.156316        -2.452739
 H        -4.427181         0.065970        -1.762812
 H        -3.191247         3.687174        -1.879755
