19
Iteration:   867charge 0 multiplicity 1
 C         1.569069        -0.067259         0.678744
 C         0.126521        -0.031872         0.344494
 C        -1.106164        -0.063255         0.133913
 C        -2.491691         0.003641        -0.429408
 C        -3.365492        -1.297263        -0.357592
 C        -2.558739         0.354158        -2.036376
 O        -2.184091         1.728222        -2.263451
 C        -3.191744         2.661023        -2.385328
 O        -4.364693         2.402795        -2.460906
 H         2.150457         0.687791         0.091562
 H         1.537418         0.235913         1.738339
 H         2.058889        -1.171192         0.693835
 H        -2.941136         0.840202         0.143713
 H        -3.069043        -1.791518         0.552166
 H        -4.420781        -1.053974        -0.370720
 H        -3.165650        -1.827532        -1.252848
 H        -1.868376        -0.327325        -2.548346
 H        -3.610166         0.165332        -2.288442
 H        -2.897625         3.663185        -2.189491
