19
Iteration:  1148charge 0 multiplicity 1
 C         0.963371         0.778680         0.544696
 C        -0.378387         0.332843         0.271239
 C        -1.380716        -0.066200        -0.326186
 C        -2.700223        -0.257368        -0.799853
 C        -3.273346        -1.706688        -0.528120
 C        -2.772955         0.148560        -2.274029
 O        -2.020716         1.362354        -2.503143
 C        -2.637605         2.479227        -2.043802
 O        -3.563633         2.611643        -1.289152
 H         0.889197         1.815536         0.986858
 H         1.346091         0.152297         1.357617
 H         1.760886         0.682062        -0.289405
 H        -3.245468         0.499380        -0.219925
 H        -2.753579        -2.018381         0.390244
 H        -4.323301        -1.666861        -0.218193
 H        -3.252650        -2.474899        -1.274372
 H        -2.215088        -0.518152        -2.905054
 H        -3.775611         0.269703        -2.623244
 H        -2.123349         3.386610        -2.268406
