19
Iteration:  4031charge 0 multiplicity 1
 C         1.432795        -0.496940         0.990735
 C         0.195521        -0.331165         0.276514
 C        -0.989964        -0.409621        -0.045313
 C        -2.336388         0.045401        -0.477197
 C        -3.176677        -0.827237        -1.301092
 C        -2.164330         1.488360        -0.994869
 O        -3.447478         2.165185        -1.223447
 C        -3.828417         2.192266        -2.526691
 O        -3.219396         1.763430        -3.466291
 H         1.716816        -1.546688         0.874156
 H         2.239317         0.175094         0.589428
 H         1.236219        -0.304500         2.028498
 H        -2.940701         0.193066         0.383232
 H        -4.097995        -1.399420        -0.952593
 H        -3.753983        -0.365035        -2.060337
 H        -2.615321        -1.659965        -1.729233
 H        -1.710102         2.027952        -0.171903
 H        -1.517997         1.503172        -2.004265
 H        -4.704471         2.795865        -2.622649
