19
Iteration:  1324
 C         0.987537         0.705812         0.691199
 C        -0.353603         0.347669         0.244788
 C        -1.406026        -0.036187        -0.167107
 C        -2.702847        -0.316772        -0.779798
 C        -3.169954        -1.830818        -0.647145
 C        -2.827470         0.091540        -2.223151
 O        -2.123297         1.471822        -2.633808
 C        -2.604850         2.576891        -2.018204
 O        -3.599194         2.691187        -1.371393
 H         1.794488        -0.066697         0.594991
 H         1.471189         1.588596         0.287183
 H         1.025592         0.732255         1.819113
 H        -3.418922         0.279017        -0.139685
 H        -4.287051        -1.916276        -0.640120
 H        -2.535885        -2.429729        -1.408237
 H        -2.786002        -2.073604         0.383410
 H        -2.331034        -0.597886        -2.909642
 H        -3.872843         0.185977        -2.473920
 H        -1.782780         3.462084        -2.255538
