19
Iteration:   820charge 0 multiplicity 1
 C         1.472733        -0.139833         0.625945
 C         0.047825        -0.141476         0.409879
 C        -1.054778        -0.062159        -0.160756
 C        -2.524779         0.005753        -0.395021
 C        -3.242881        -1.361662        -0.163480
 C        -2.560996         0.478621        -1.865506
 O        -2.184270         1.909924        -2.027115
 C        -3.181764         2.628553        -2.560761
 O        -4.367508         2.344449        -2.597475
 H         1.748867         1.013803         0.628909
 H         1.844004        -0.688247         1.497834
 H         1.889618        -0.564946        -0.269438
 H        -2.997912         0.725553         0.236683
 H        -3.645740        -1.469671         0.850181
 H        -4.053028        -1.331284        -0.905867
 H        -2.572768        -2.185286        -0.492550
 H        -1.724826         0.021396        -2.360366
 H        -3.491413         0.260124        -2.342109
 H        -2.860717         3.485147        -3.164284
