19
Iteration:  2580charge 0 multiplicity 1
 C         1.217589         0.503193         0.547340
 C        -0.090753         0.074926         0.089813
 C        -1.212510        -0.275755        -0.039729
 C        -2.672732        -0.471662        -0.432243
 C        -3.111965        -1.998276        -0.694391
 C        -3.032481         0.514061        -1.673848
 O        -3.200811         1.827910        -1.142339
 C        -2.902031         2.798042        -2.132151
 O        -2.701344         2.618603        -3.318919
 H         2.024447        -0.297852         0.696003
 H         1.573164         1.140921        -0.397662
 H         1.294667         1.128203         1.403278
 H        -3.369325        -0.174523         0.390278
 H        -4.021371        -1.913444        -1.301521
 H        -2.238755        -2.492368        -1.165675
 H        -3.259153        -2.473743         0.275495
 H        -2.081070         0.537223        -2.294868
 H        -3.909694         0.123159        -2.190897
 H        -3.129385         3.776235        -1.640876
