19
Iteration:  3950charge 0 multiplicity 1
 C         1.530571        -0.390334         0.660972
 C         0.069861        -0.424284         0.316259
 C        -1.156032        -0.429321         0.167381
 C        -2.509840         0.071931        -0.334079
 C        -3.078042        -0.953152        -1.305639
 C        -2.271971         1.432699        -0.862381
 O        -3.433057         2.180680        -1.294375
 C        -3.743105         2.266982        -2.567736
 O        -3.083125         1.804677        -3.472625
 H         2.295968        -0.577886        -0.211272
 H         1.822079         0.585343         0.947789
 H         1.873862        -1.101933         1.435099
 H        -3.263866         0.175478         0.476624
 H        -3.710937        -0.426393        -2.002827
 H        -2.235251        -1.537527        -1.787469
 H        -3.723747        -1.799451        -0.986651
 H        -1.906007         2.034493         0.039961
 H        -1.470479         1.413073        -1.549041
 H        -4.753094         2.784906        -2.620922
