19
Iteration:  3726charge 0 multiplicity 1
 C         1.487753        -0.863478         0.944760
 C         0.221245        -0.575888         0.340045
 C        -0.893614        -0.122113         0.110106
 C        -2.278927         0.221754        -0.136548
 C        -2.933724        -0.931372        -1.078579
 C        -2.225060         1.518682        -1.069466
 O        -3.618642         1.773614        -1.473554
 C        -4.016097         2.154734        -2.709527
 O        -3.303705         2.457687        -3.621931
 H         1.871581        -0.339802         1.794074
 H         1.735525        -1.987932         1.165365
 H         2.415708        -0.667810         0.285161
 H        -2.962313         0.366440         0.750646
 H        -3.937934        -0.599556        -1.482841
 H        -2.380592        -1.137826        -2.012088
 H        -3.067760        -1.848014        -0.447556
 H        -1.868649         2.332859        -0.537403
 H        -1.473617         1.275831        -1.827606
 H        -5.154171         2.303907        -2.617134
