19
Iteration:   255charge 0 multiplicity 1
 C         1.136580         0.491808        -0.847990
 C        -0.196811         0.200970        -0.321094
 C        -1.376460         0.084006        -0.017739
 C        -2.762208        -0.138536         0.014701
 C        -3.259303        -1.613043         0.224877
 C        -3.562729         0.502268        -1.164819
 O        -3.425370         1.940036        -1.338813
 C        -2.400440         2.428574        -2.217450
 O        -1.913565         1.859827        -3.168394
 H         1.795166        -0.479863        -0.784575
 H         0.960362         1.064443        -1.730106
 H         1.688495         1.122940        -0.170365
 H        -3.102237         0.294045         1.033532
 H        -2.687867        -1.987605         1.096511
 H        -4.278732        -1.422999         0.572521
 H        -3.232845        -2.313065        -0.620867
 H        -3.158776         0.001502        -2.078989
 H        -4.615142         0.243391        -0.997281
 H        -2.078966         3.425428        -1.885337
