19
Iteration:  1488
 C         1.186682         0.061969         1.163759
 C         0.010005         0.015289         0.294887
 C        -1.120875         0.206925        -0.084122
 C        -2.539556        -0.030713        -0.708351
 C        -3.025799        -1.573539        -0.548970
 C        -2.578933         0.370389        -2.174724
 O        -2.223321         1.642742        -2.670228
 C        -3.086330         2.626286        -2.351575
 O        -4.190423         2.452512        -1.802034
 H         0.726079         0.706127         1.958776
 H         1.505492        -0.953733         1.405365
 H         1.945264         0.669263         0.603660
 H        -3.326044         0.591308        -0.166724
 H        -3.328048        -2.100984        -1.477102
 H        -2.239079        -2.095880         0.082277
 H        -3.869353        -1.704763         0.219097
 H        -1.990443        -0.373235        -2.748071
 H        -3.627983         0.250257        -2.463635
 H        -2.538093         3.600857        -2.584975
