19
Iteration:  4429
 C         1.422775        -0.176887         1.076355
 C         0.138220        -0.396062         0.533128
 C        -0.963738        -0.543378         0.034798
 C        -2.276277        -0.148822        -0.471923
 C        -3.100871        -1.164452        -1.305175
 C        -2.236677         1.098845        -1.352728
 O        -3.522133         1.755211        -1.334317
 C        -3.847920         2.427549        -2.473528
 O        -3.129129         2.649369        -3.427878
 H         2.242220        -0.529979         0.514978
 H         1.407811         0.890330         1.385552
 H         1.445106        -0.765626         2.058904
 H        -2.878340         0.127529         0.457755
 H        -3.985444        -0.719020        -1.886021
 H        -2.501724        -1.735729        -1.975377
 H        -3.703186        -1.918733        -0.748686
 H        -1.484792         1.779069        -0.899517
 H        -2.025222         0.701761        -2.404883
 H        -4.947879         2.758650        -2.434339
