19
Iteration:  4868
 C         1.284882        -0.143712         1.222597
 C        -0.028642        -0.153623         0.544911
 C        -1.037461         0.140514        -0.141048
 C        -2.339880         0.042440        -0.909205
 C        -3.214654        -1.128969        -0.461985
 C        -2.243060         0.451053        -2.402887
 O        -3.394756         1.166224        -2.877680
 C        -3.659781         2.300699        -2.277633
 O        -2.984005         3.001775        -1.507945
 H         1.970226         0.230741         0.474586
 H         1.324713         0.422939         2.128466
 H         1.584452        -1.244663         1.379136
 H        -2.962622         0.905472        -0.647915
 H        -4.031134        -1.352185        -1.093206
 H        -2.549486        -2.073674        -0.600558
 H        -3.762511        -1.092802         0.502039
 H        -1.378914         1.172803        -2.555425
 H        -1.930416        -0.252093        -3.174322
 H        -4.563355         2.722312        -2.766872
