19
Iteration:  4426charge 0 multiplicity 1
 C         1.425689        -0.161493         1.083885
 C         0.117725        -0.425098         0.546930
 C        -0.987934        -0.539126         0.029364
 C        -2.285972        -0.159604        -0.478650
 C        -3.107322        -1.144905        -1.298743
 C        -2.206445         1.095735        -1.349674
 O        -3.531728         1.768675        -1.331469
 C        -3.832347         2.430369        -2.455168
 O        -3.141511         2.649010        -3.445520
 H         2.263488        -0.555550         0.437552
 H         1.403088         0.920044         1.420867
 H         1.553537        -0.717101         1.972813
 H        -2.846379         0.088387         0.434934
 H        -3.951136        -0.846817        -1.893503
 H        -2.477183        -1.787660        -2.025027
 H        -3.546657        -2.002046        -0.730819
 H        -1.398209         1.802734        -0.972352
 H        -2.016122         0.799718        -2.353717
 H        -4.922634         2.689449        -2.428642
