19
Iteration:  2859
 C         1.312373        -0.125321         0.985703
 C        -0.041910         0.054140         0.416455
 C        -1.192483        -0.132272         0.115389
 C        -2.570783        -0.316011        -0.553886
 C        -2.820012        -1.796372        -0.847433
 C        -2.839763         0.572829        -1.735010
 O        -2.848837         1.951985        -1.337037
 C        -3.098482         2.811919        -2.332350
 O        -3.582941         2.643452        -3.426716
 H         2.028768         0.584878         0.571487
 H         1.604411        -0.065494         2.082819
 H         1.662117        -1.116073         0.625131
 H        -3.269211         0.133530         0.179707
 H        -3.958906        -1.971685        -0.893494
 H        -2.373153        -2.116418        -1.809886
 H        -2.315383        -2.381017        -0.087563
 H        -2.044806         0.507014        -2.466892
 H        -3.853325         0.488281        -2.133261
 H        -2.789489         3.827919        -2.069560
