19
Iteration:  1390charge 0 multiplicity 1
 C         1.029009         0.423565         1.017303
 C        -0.135691         0.194804         0.234979
 C        -1.247488         0.066293        -0.250679
 C        -2.583592        -0.099397        -0.777451
 C        -3.096367        -1.539367        -0.587129
 C        -2.725839         0.139999        -2.299954
 O        -2.285038         1.488938        -2.744876
 C        -2.848820         2.495520        -2.185187
 O        -3.743518         2.566572        -1.339164
 H         1.019676        -0.362585         1.814657
 H         1.955198         0.542724         0.441794
 H         0.646016         1.338819         1.527280
 H        -3.273522         0.629131        -0.252444
 H        -3.123419        -1.916857         0.459947
 H        -4.159605        -1.649352        -1.022973
 H        -2.544430        -2.286911        -1.264930
 H        -1.984846        -0.465085        -2.821917
 H        -3.712931        -0.062221        -2.677573
 H        -2.268878         3.395097        -2.306162
