19
Iteration:  4029charge 0 multiplicity 1
 C         1.428079        -0.482139         0.983029
 C         0.192698        -0.321659         0.274602
 C        -0.993700        -0.408826        -0.053925
 C        -2.320469         0.036472        -0.482838
 C        -3.175973        -0.831515        -1.299520
 C        -2.186926         1.483913        -0.993983
 O        -3.452250         2.177674        -1.200824
 C        -3.813664         2.200862        -2.531250
 O        -3.210493         1.751099        -3.476210
 H         1.812860        -1.599927         0.914268
 H         2.199438         0.155986         0.589235
 H         1.196209        -0.372493         2.009167
 H        -2.967630         0.154554         0.391859
 H        -4.104100        -1.336993        -0.904691
 H        -3.754003        -0.407037        -2.072907
 H        -2.643355        -1.715552        -1.721547
 H        -1.681763         2.027722        -0.187871
 H        -1.540699         1.464515        -1.952330
 H        -4.701041         2.855059        -2.623027
