19
Iteration:  3394charge 0 multiplicity 1
 C         1.125894        -0.042098         1.045762
 C        -0.225238        -0.032599         0.434110
 C        -1.340089        -0.097224         0.043774
 C        -2.645628        -0.359912        -0.530036
 C        -2.600811        -1.936355        -1.001768
 C        -2.907214         0.620285        -1.656146
 O        -2.311830         2.038464        -1.613621
 C        -2.874931         2.864256        -2.477907
 O        -3.935576         2.608800        -2.992370
 H         1.799016         0.413399         0.280783
 H         1.071219         0.683806         1.895519
 H         1.476213        -0.997025         1.365153
 H        -3.378670        -0.118888         0.253936
 H        -3.605081        -2.146177        -1.484301
 H        -1.743565        -2.276677        -1.606792
 H        -2.444702        -2.402751         0.021525
 H        -2.586018         0.121035        -2.629807
 H        -3.952287         0.657370        -1.812821
 H        -2.286419         3.760495        -2.512032
