19
Iteration:  3523charge 0 multiplicity 1
 C         1.225400        -0.220921         1.303893
 C         0.155900        -0.299719         0.309696
 C        -0.959546        -0.211629        -0.175036
 C        -2.361544        -0.230950        -0.675217
 C        -3.014219        -1.586543        -0.721169
 C        -2.393060         0.742552        -1.849949
 O        -2.884956         1.950549        -1.341244
 C        -3.503530         2.767541        -2.263654
 O        -3.803915         2.650549        -3.458719
 H         1.827413        -1.240841         1.331462
 H         1.975993         0.461556         0.961715
 H         0.906160         0.005377         2.336718
 H        -2.947559         0.363045         0.075338
 H        -3.897456        -1.275885        -1.286410
 H        -2.452948        -2.322919        -1.215843
 H        -3.458824        -1.845838         0.221345
 H        -1.334302         0.760713        -2.072221
 H        -3.003042         0.464951        -2.696435
 H        -3.615413         3.724781        -1.648869
