19
Iteration:  2357
 C         1.082610         0.686472         0.271798
 C        -0.247497         0.234036        -0.046178
 C        -1.395378        -0.102006        -0.114434
 C        -2.809317        -0.421499        -0.387912
 C        -3.092235        -1.828069        -0.585399
 C        -3.234163         0.338616        -1.583390
 O        -3.320620         1.729538        -1.256548
 C        -2.719805         2.584799        -2.074293
 O        -2.060392         2.443652        -3.074803
 H         1.197625         1.758529         0.428679
 H         1.210391         0.154806         1.253169
 H         1.745868         0.499619        -0.481179
 H        -3.369613         0.027680         0.466204
 H        -2.339784        -2.397904        -0.136910
 H        -4.066321        -2.056334        -0.206516
 H        -2.915439        -2.155782        -1.614386
 H        -2.607401         0.195377        -2.447190
 H        -4.247242         0.017580        -1.958317
 H        -2.717294         3.504159        -1.392360
