19
Iteration:  1055charge 0 multiplicity 1
 C         1.201022         0.304990         0.899389
 C        -0.146509         0.235963         0.266207
 C        -1.252489         0.210520        -0.231006
 C        -2.590469        -0.115990        -0.736720
 C        -3.129908        -1.628164        -0.423721
 C        -2.787178         0.065390        -2.267981
 O        -2.245695         1.431677        -2.659169
 C        -2.945840         2.586832        -2.284867
 O        -3.788900         2.696256        -1.431640
 H         1.157858        -0.141567         1.851899
 H         1.866892        -0.256187         0.218010
 H         1.704570         1.251576         0.959153
 H        -3.264722         0.618240        -0.226346
 H        -3.951723        -1.629278         0.293495
 H        -3.377064        -2.247937        -1.296025
 H        -2.262139        -2.237791        -0.119551
 H        -2.245499        -0.626352        -2.976403
 H        -3.895729         0.196900        -2.446987
 H        -2.575921         3.346226        -3.079302
