19
Iteration:  1019
 C         1.196333         0.196797         0.858313
 C        -0.153595         0.070585         0.480354
 C        -1.161847         0.026473        -0.220027
 C        -2.592936        -0.057506        -0.657778
 C        -2.964070        -1.635452        -0.328064
 C        -2.730605         0.221574        -2.168926
 O        -2.294841         1.519464        -2.742353
 C        -3.025065         2.712074        -2.411114
 O        -3.925357         2.700851        -1.630441
 H         1.467049        -0.805139         1.276103
 H         1.750387         0.162169        -0.074932
 H         1.433404         0.951759         1.439491
 H        -3.129150         0.738045        -0.118912
 H        -3.731555        -1.764987         0.489338
 H        -3.328018        -2.213830        -1.221918
 H        -2.068077        -1.992840         0.163889
 H        -2.252097        -0.539602        -2.806884
 H        -3.819470         0.126161        -2.386807
 H        -2.836396         3.635157        -3.055023
