19
Iteration:  1401charge 0 multiplicity 1
 C         1.059473         0.427149         1.111833
 C        -0.059217         0.181280         0.195554
 C        -1.263498         0.074193        -0.202656
 C        -2.602561        -0.121403        -0.814282
 C        -3.141292        -1.542067        -0.585361
 C        -2.682520         0.101779        -2.349539
 O        -2.313319         1.458772        -2.814969
 C        -2.837723         2.612694        -2.085788
 O        -3.818658         2.567050        -1.373697
 H         1.102580        -0.402607         1.864862
 H         2.059225         0.272067         0.664246
 H         1.219265         1.369422         1.669481
 H        -3.333814         0.611794        -0.369598
 H        -2.705977        -1.912220         0.352567
 H        -4.288527        -1.533167        -0.563840
 H        -2.652121        -2.176592        -1.399183
 H        -2.083460        -0.617491        -2.914932
 H        -3.723369        -0.042808        -2.599153
 H        -2.369476         3.443477        -2.550643
