19
Iteration:  3126
 C         1.185204        -0.072152         0.827240
 C        -0.215524         0.123002         0.439044
 C        -1.327415        -0.053780         0.031370
 C        -2.582345        -0.389124        -0.538041
 C        -2.630198        -1.924085        -0.732314
 C        -2.918245         0.473071        -1.862105
 O        -2.592373         1.860245        -1.478999
 C        -3.048781         2.849584        -2.174483
 O        -3.585676         2.827369        -3.274816
 H         1.087380        -0.689866         1.788152
 H         1.716229        -0.530335         0.038107
 H         1.856819         0.841055         1.116510
 H        -3.409779        -0.075523         0.136931
 H        -3.640198        -2.213699        -1.072764
 H        -1.794124        -2.244009        -1.412410
 H        -2.503725        -2.289237         0.303428
 H        -2.201831         0.262567        -2.653507
 H        -3.979895         0.406484        -2.202043
 H        -3.056499         3.703862        -1.508679
