19
Iteration:  3493
 C         1.208303        -0.237740         1.265888
 C         0.038918        -0.196309         0.409950
 C        -1.082353        -0.312352        -0.091263
 C        -2.421746        -0.216517        -0.654293
 C        -2.843685        -1.756679        -0.651469
 C        -2.496168         0.713115        -1.981500
 O        -2.749807         2.058839        -1.488685
 C        -3.432005         2.939784        -2.262449
 O        -3.825178         2.617380        -3.333831
 H         1.844561        -1.050003         0.804104
 H         1.681218         0.770064         0.979104
 H         0.996003        -0.448023         2.295467
 H        -3.063428         0.354039         0.094758
 H        -3.708301        -1.637524        -1.361442
 H        -2.154967        -2.425479        -1.250496
 H        -3.068258        -2.185269         0.343548
 H        -1.499962         0.532198        -2.473449
 H        -3.212393         0.436645        -2.666053
 H        -3.499501         3.877969        -1.667435
