19
Iteration:  2257
 C         0.845336         1.091185        -0.027764
 C        -0.384001         0.279279        -0.211611
 C        -1.453279        -0.218347        -0.068180
 C        -2.880268        -0.572251        -0.347691
 C        -3.203035        -2.109532        -0.548127
 C        -3.335628         0.375296        -1.512588
 O        -3.233428         1.815425        -1.178757
 C        -2.447040         2.602860        -2.000630
 O        -1.735081         2.373370        -2.979856
 H         1.097675         1.046701         1.089043
 H         1.829958         0.602598        -0.452437
 H         0.640203         2.001308        -0.563142
 H        -3.372418        -0.355944         0.642544
 H        -4.059138        -2.343752         0.101587
 H        -3.684317        -2.236873        -1.532994
 H        -2.311640        -2.723823        -0.358552
 H        -2.649472         0.091552        -2.401528
 H        -4.387518         0.189218        -1.788251
 H        -2.491915         3.551659        -1.222117
