19
Iteration:   573charge 0 multiplicity 1
 C         1.479070        -0.102262         0.301976
 C         0.053608        -0.088112         0.002356
 C        -1.119365         0.164486         0.110027
 C        -2.535559        -0.083508        -0.118481
 C        -3.146929        -1.520943        -0.030121
 C        -2.930212         0.465953        -1.491376
 O        -2.573756         1.819227        -1.564636
 C        -3.082780         2.649501        -2.469513
 O        -3.757362         2.393144        -3.439922
 H         2.171226        -0.281914        -0.653065
 H         1.666655         0.994459         0.428321
 H         1.718158        -0.840819         1.075050
 H        -3.095352         0.446432         0.612848
 H        -2.680349        -2.047915         0.803576
 H        -4.227289        -1.286617         0.181036
 H        -3.099004        -2.029390        -1.011419
 H        -2.237501         0.027445        -2.285146
 H        -3.914197         0.373494        -1.999402
 H        -2.838453         3.656805        -2.381459
