19
Iteration:  3210charge 0 multiplicity 1
 C         1.129670         0.469056         0.769845
 C        -0.220733         0.069122         0.462699
 C        -1.309723        -0.395727         0.077520
 C        -2.629264        -0.557576        -0.494350
 C        -3.147683        -1.884342        -1.074996
 C        -2.695783         0.481184        -1.690759
 O        -2.324651         1.942901        -1.442796
 C        -2.848189         2.855925        -2.213762
 O        -3.677315         2.580526        -3.040001
 H         1.391773         1.115583         1.590962
 H         1.869530        -0.417662         0.900620
 H         1.228435         1.082619        -0.089849
 H        -3.306894        -0.167494         0.322555
 H        -3.997228        -1.730461        -1.739805
 H        -2.481262        -2.465106        -1.671578
 H        -3.461398        -2.620800        -0.306922
 H        -1.898827         0.380582        -2.516913
 H        -3.714156         0.465949        -2.048984
 H        -2.153257         3.763394        -2.367131
