19
Iteration:  4863charge 0 multiplicity 1
 C         1.280141        -0.212862         1.237057
 C        -0.043913        -0.114849         0.499049
 C        -1.024011         0.157812        -0.121873
 C        -2.381303         0.072281        -0.865911
 C        -3.174218        -1.140862        -0.497245
 C        -2.220803         0.433228        -2.364217
 O        -3.372603         1.135224        -2.915646
 C        -3.702929         2.344688        -2.252872
 O        -2.987592         3.008392        -1.526367
 H         1.992390         0.275820         0.521602
 H         1.399780         0.424381         2.164261
 H         1.648317        -1.204742         1.269228
 H        -2.973761         0.955712        -0.495479
 H        -4.015866        -1.394908        -1.226050
 H        -2.591868        -2.040072        -0.470876
 H        -3.597498        -1.100337         0.512451
 H        -1.448554         1.172162        -2.497251
 H        -2.100670        -0.388236        -3.104523
 H        -4.567132         2.756283        -2.838252
