19
Iteration:  4111
 C         1.509258        -0.998940         0.993785
 C         0.120133        -0.495116         0.658043
 C        -0.932395        -0.084330         0.270585
 C        -2.212740         0.242100        -0.387574
 C        -2.642440        -0.935725        -1.295325
 C        -2.234429         1.564972        -1.172550
 O        -3.589168         2.065238        -1.312845
 C        -4.032889         2.284023        -2.652576
 O        -3.511702         1.993089        -3.702466
 H         1.408906        -1.810838         1.595158
 H         2.045368        -1.252057         0.061549
 H         2.145266        -0.120931         1.366535
 H        -2.958688         0.375669         0.382708
 H        -1.907918        -1.695004        -1.288209
 H        -3.717538        -1.222147        -1.025075
 H        -2.957870        -0.506170        -2.272475
 H        -1.788678         2.348518        -0.456132
 H        -1.747118         1.628091        -2.119538
 H        -5.047382         2.617347        -2.608552
