19
Iteration:  4657charge 0 multiplicity 1
 C         1.455267        -0.823496         1.003904
 C         0.182168        -0.509521         0.445304
 C        -0.856791        -0.055226         0.141404
 C        -2.193747         0.178594        -0.305167
 C        -2.980084        -1.341829        -0.590094
 C        -2.345078         1.328166        -1.379366
 O        -3.425028         1.157972        -2.363009
 C        -3.894440         2.251376        -2.935370
 O        -3.473812         3.394581        -2.756096
 H         1.301736        -0.725545         2.095462
 H         1.903475        -1.863029         0.786162
 H         2.269478        -0.082412         0.735575
 H        -2.835218         0.567288         0.471659
 H        -3.830444        -1.025976        -1.310799
 H        -2.255129        -2.017427        -0.964851
 H        -3.423165        -1.551395         0.399834
 H        -2.474156         2.232489        -0.882476
 H        -1.383556         1.496918        -1.876250
 H        -4.536531         2.027494        -3.768337
