19
Iteration:   230
 C         1.171619         0.501198        -0.952699
 C        -0.269534         0.404545        -0.391065
 C        -1.465153         0.132664        -0.123528
 C        -2.916775        -0.043270         0.027494
 C        -3.313206        -1.557087         0.273464
 C        -3.531813         0.411567        -1.277341
 O        -3.210324         1.777215        -1.235900
 C        -2.491443         2.365243        -2.184519
 O        -1.809032         1.822256        -2.988926
 H         1.533950        -0.600353        -1.121838
 H         1.201639         1.257983        -1.660644
 H         1.819583         0.690870        -0.140192
 H        -3.290797         0.651483         0.914962
 H        -2.493284        -2.038162         0.754583
 H        -4.226602        -1.661417         0.818241
 H        -3.387001        -1.995933        -0.712578
 H        -3.117050        -0.077225        -2.109853
 H        -4.620848         0.323841        -1.196802
 H        -2.496862         3.493994        -2.034040
