19
Iteration:  4336
 C         1.372792        -0.539177         1.013804
 C         0.037542        -0.261641         0.622836
 C        -1.120667        -0.222929         0.232704
 C        -2.358939        -0.097206        -0.467613
 C        -2.713228        -1.385708        -1.457478
 C        -2.262105         1.148811        -1.320985
 O        -3.492059         2.076222        -1.227098
 C        -3.760498         2.564143        -2.465479
 O        -3.345687         2.301996        -3.582944
 H         2.205544         0.185666         0.627025
 H         1.384940        -0.448435         2.133534
 H         1.704764        -1.548285         0.762810
 H        -3.138478         0.011147         0.286991
 H        -3.722423        -1.707360        -1.169775
 H        -2.463992        -0.901221        -2.438716
 H        -2.049453        -2.191869        -1.191524
 H        -1.584201         1.808680        -0.877580
 H        -2.167750         0.996381        -2.380790
 H        -4.347921         3.497200        -2.316636
