19
Iteration:  3328charge 0 multiplicity 1
 C         1.206834         0.294495         1.045906
 C        -0.155140         0.101742         0.470883
 C        -1.242509        -0.265579        -0.082565
 C        -2.604378        -0.448146        -0.635534
 C        -3.014507        -1.994798        -0.803973
 C        -2.805614         0.316408        -1.881016
 O        -2.357751         1.721104        -1.637196
 C        -2.934808         2.802408        -2.215261
 O        -3.782288         3.066288        -3.067138
 H         1.611042         1.303338         0.874003
 H         1.176670         0.386783         2.134580
 H         2.007415        -0.274447         0.661810
 H        -3.369153        -0.279175         0.088259
 H        -4.093956        -2.044265        -1.122502
 H        -2.395915        -2.493072        -1.563038
 H        -2.680450        -2.362520         0.227359
 H        -2.239042        -0.199952        -2.730573
 H        -3.861150         0.338279        -2.092800
 H        -2.531674         3.595567        -1.629298
