19
Iteration:  3512
 C         1.225757        -0.213066         1.256096
 C         0.055528        -0.265530         0.322924
 C        -1.004714        -0.246234        -0.198420
 C        -2.382700        -0.214918        -0.640561
 C        -2.986230        -1.605537        -0.717427
 C        -2.361001         0.672064        -1.865355
 O        -2.834183         2.002500        -1.360931
 C        -3.453757         2.808039        -2.277696
 O        -3.827971         2.661251        -3.406372
 H         1.742228        -1.288613         1.231072
 H         1.865247         0.639205         1.150089
 H         0.679639        -0.160880         2.216655
 H        -2.994754         0.262582         0.178647
 H        -3.828870        -1.957705        -1.306370
 H        -2.249139        -2.342906        -0.924992
 H        -3.024039        -1.855776         0.331599
 H        -1.417069         0.996133        -2.314676
 H        -2.921410         0.267673        -2.698239
 H        -3.602436         3.844732        -1.791478
