19
Iteration:   258
 C         1.147411         0.474587        -0.845489
 C        -0.184493         0.174649        -0.301855
 C        -1.385659         0.055300        -0.021636
 C        -2.774687        -0.134370         0.026972
 C        -3.244598        -1.614658         0.221107
 C        -3.539041         0.536300        -1.145502
 O        -3.429226         1.964339        -1.366153
 C        -2.421123         2.423325        -2.211733
 O        -1.933099         1.859987        -3.180393
 H         1.773268        -0.314210        -0.738923
 H         1.050964         1.109462        -1.840027
 H         1.702403         1.223887        -0.091525
 H        -3.065031         0.276643         0.938702
 H        -2.687825        -1.957526         1.137595
 H        -4.358086        -1.503207         0.505596
 H        -3.186057        -2.355926        -0.624927
 H        -3.130757        -0.040527        -2.066337
 H        -4.589582         0.246965        -0.961131
 H        -2.077143         3.361870        -1.811751
