19
Iteration:  2679charge 0 multiplicity 1
 C         1.020399         0.512548         0.296440
 C        -0.365516         0.061137         0.272937
 C        -1.585506        -0.267276         0.247080
 C        -2.826524        -0.457658        -0.465587
 C        -2.838155        -2.039725        -0.820972
 C        -2.832974         0.426549        -1.656311
 O        -2.639242         1.849901        -1.142961
 C        -2.634985         2.773504        -2.155731
 O        -3.137716         2.714232        -3.274484
 H         1.557198         0.595803         1.250755
 H         1.538013        -0.380946        -0.226546
 H         1.237631         1.448488        -0.068062
 H        -3.621996        -0.058402         0.179104
 H        -3.823878        -2.305588        -0.999395
 H        -2.184606        -1.973987        -1.671658
 H        -2.412461        -2.383522         0.076314
 H        -1.992961         0.035025        -2.274064
 H        -3.752216         0.411745        -2.228392
 H        -2.569664         3.712202        -1.592279
