19
Iteration:  1486
 C         1.175775         0.066112         1.181671
 C         0.005113         0.013311         0.290294
 C        -1.121837         0.207536        -0.086990
 C        -2.547230        -0.041943        -0.730656
 C        -3.017007        -1.559718        -0.534102
 C        -2.592099         0.353170        -2.175380
 O        -2.222345         1.654520        -2.672380
 C        -3.084078         2.623746        -2.350758
 O        -4.176955         2.448544        -1.783349
 H         0.793349         0.662670         1.971402
 H         1.540646        -0.901573         1.368909
 H         1.890963         0.706639         0.551168
 H        -3.304516         0.603893        -0.217720
 H        -3.230887        -2.108840        -1.419408
 H        -2.292728        -2.126434         0.082173
 H        -3.872571        -1.702969         0.131136
 H        -2.012887        -0.360040        -2.808361
 H        -3.679801         0.247024        -2.455750
 H        -2.486595         3.616361        -2.675134
