19
Iteration:  2228
 C         0.876083         1.040508        -0.150441
 C        -0.465482         0.372094        -0.052914
 C        -1.523590        -0.171824        -0.050357
 C        -2.933868        -0.481635        -0.352852
 C        -3.064350        -1.959851        -0.657524
 C        -3.322255         0.373741        -1.559498
 O        -3.269793         1.821014        -1.177170
 C        -2.394329         2.550065        -1.913021
 O        -1.760592         2.139274        -2.855598
 H         1.424645         0.700335         0.759258
 H         1.280224         0.674261        -1.125111
 H         0.726061         2.069433        -0.455544
 H        -3.467146        -0.238249         0.554541
 H        -4.066145        -2.325578        -0.405093
 H        -2.905381        -2.052111        -1.772456
 H        -2.191116        -2.565370        -0.245877
 H        -2.692888         0.157016        -2.396031
 H        -4.411888         0.304358        -1.773014
 H        -2.461686         3.453473        -1.385596
