19
Iteration:  2354charge 0 multiplicity 1
 C         1.076660         0.699402         0.273352
 C        -0.222769         0.261009        -0.055626
 C        -1.397703        -0.130744        -0.136638
 C        -2.810446        -0.411955        -0.389671
 C        -3.129138        -1.847802        -0.575929
 C        -3.218917         0.321332        -1.587675
 O        -3.325391         1.744456        -1.258053
 C        -2.705530         2.585725        -2.047915
 O        -2.061164         2.435832        -3.076238
 H         0.976548         1.795413         0.532742
 H         1.266347         0.216474         1.228760
 H         1.798940         0.460235        -0.603185
 H        -3.399096         0.043968         0.422876
 H        -2.344487        -2.395941        -0.041623
 H        -4.118245        -2.085142        -0.220004
 H        -2.871160        -2.188289        -1.559572
 H        -2.546776         0.232767        -2.489485
 H        -4.199367         0.114826        -1.987746
 H        -2.678551         3.424047        -1.321409
