19
Iteration:  3084charge 0 multiplicity 1
 C         1.265226        -0.217474         0.994234
 C        -0.003027        -0.028540         0.432063
 C        -1.078804         0.019448        -0.068991
 C        -2.481919        -0.275407        -0.599546
 C        -2.772208        -1.786520        -0.787607
 C        -2.860799         0.533181        -1.753222
 O        -2.965813         1.856665        -1.321850
 C        -3.120736         2.856901        -2.286701
 O        -3.606571         2.752354        -3.403587
 H         1.418341        -1.088284         1.657304
 H         2.167738        -0.157441         0.426731
 H         1.410704         0.653819         1.696990
 H        -3.085503        -0.036328         0.261096
 H        -3.777115        -1.915820        -1.265637
 H        -1.972695        -2.300206        -1.432789
 H        -2.801101        -2.304519         0.198018
 H        -2.180763         0.398961        -2.568208
 H        -3.795706         0.217135        -2.308997
 H        -2.829816         3.818655        -1.860527
