19
Iteration:  2373
 C         1.172408         0.559425         0.311923
 C        -0.249013         0.234828         0.020504
 C        -1.410575         0.014017        -0.039917
 C        -2.808672        -0.357471        -0.314812
 C        -2.967383        -1.935212        -0.662776
 C        -3.345658         0.320645        -1.591671
 O        -3.337635         1.767681        -1.288759
 C        -2.734869         2.697253        -2.113272
 O        -2.072012         2.425342        -3.096838
 H         1.148500         1.699215         0.283953
 H         1.569120         0.326136         1.302119
 H         1.752505        -0.111207        -0.446779
 H        -3.490393        -0.135643         0.504966
 H        -2.126248        -2.646937        -0.283304
 H        -3.946816        -2.270678        -0.206802
 H        -3.044645        -2.042719        -1.786567
 H        -2.706942         0.148570        -2.507281
 H        -4.419683         0.133970        -1.781225
 H        -3.248295         3.642008        -1.853369
