19
Iteration:  3907charge 0 multiplicity 1
 C         1.473771        -0.585834         0.431033
 C         0.000068        -0.379880         0.582801
 C        -1.210216        -0.261673         0.432155
 C        -2.473718         0.131593        -0.254422
 C        -2.902634        -0.813212        -1.357690
 C        -2.210255         1.524892        -0.979985
 O        -3.498065         1.947327        -1.300014
 C        -3.826398         2.117234        -2.570955
 O        -3.024032         1.962595        -3.490558
 H         1.634982        -0.215032        -0.679988
 H         2.010173         0.138519         0.940487
 H         1.731262        -1.621931         0.466759
 H        -3.243100         0.371701         0.461219
 H        -3.235828        -0.571418        -2.362241
 H        -2.089648        -1.615764        -1.509626
 H        -3.625247        -1.578464        -0.951504
 H        -1.791708         2.193517        -0.113855
 H        -1.573788         1.562188        -1.863121
 H        -4.904038         2.194309        -2.753119
