19
Iteration:  2361
 C         1.077412         0.668763         0.291647
 C        -0.267143         0.210319        -0.034895
 C        -1.414126        -0.070962        -0.089286
 C        -2.795480        -0.408241        -0.372709
 C        -3.042752        -1.823187        -0.605730
 C        -3.274492         0.361081        -1.592624
 O        -3.318946         1.704245        -1.256436
 C        -2.724510         2.607728        -2.089102
 O        -2.063100         2.449371        -3.077228
 H         1.419096         1.742733         0.327214
 H         1.273817         0.124033         1.219702
 H         1.887370         0.408011        -0.483698
 H        -3.340442        -0.043905         0.512456
 H        -2.265164        -2.510466        -0.110515
 H        -4.064282        -2.091220        -0.201924
 H        -3.045033        -2.085480        -1.721230
 H        -2.594536         0.143886        -2.432718
 H        -4.269284        -0.084255        -1.854286
 H        -2.792796         3.621723        -1.630138
