19
Iteration:  1075charge 0 multiplicity 1
 C         1.159215         0.368823         0.867396
 C        -0.087299         0.318855         0.122288
 C        -1.285253         0.158018        -0.223595
 C        -2.693061        -0.133128        -0.685465
 C        -3.143571        -1.576538        -0.502483
 C        -2.752597         0.153862        -2.188887
 O        -2.323719         1.351336        -2.724765
 C        -2.805894         2.551823        -2.173329
 O        -3.743016         2.609391        -1.422113
 H         0.812534         0.362532         1.920534
 H         1.952483        -0.367433         0.636167
 H         1.575159         1.290091         0.749738
 H        -3.308075         0.529458        -0.073976
 H        -4.000696        -1.521478         0.209559
 H        -3.636254        -2.032534        -1.411903
 H        -2.417507        -2.369572        -0.255111
 H        -1.981141        -0.497824        -2.649094
 H        -3.762867        -0.048932        -2.635456
 H        -2.078290         3.412855        -2.358450
