19
Iteration:  3140
 C         1.200198         0.035584         0.837443
 C        -0.212240         0.000322         0.375137
 C        -1.404695         0.004887         0.092471
 C        -2.732355        -0.365064        -0.572128
 C        -2.638976        -1.892544        -0.751990
 C        -2.825477         0.475793        -1.813242
 O        -2.440718         1.768646        -1.426237
 C        -3.126376         2.859818        -2.158507
 O        -3.594655         2.844488        -3.298031
 H         1.459565        -0.474157         1.775251
 H         1.646792        -0.635019         0.135190
 H         1.563409         1.066279         0.781880
 H        -3.543760        -0.199223         0.113727
 H        -3.569574        -2.351291        -1.186376
 H        -1.897140        -2.206132        -1.558027
 H        -2.389422        -2.513065         0.099223
 H        -2.306988        -0.012891        -2.626188
 H        -3.955893         0.561837        -1.981774
 H        -2.782957         3.779285        -1.708322
