19
Iteration:    53charge 0 multiplicity 1
 C         1.257341         0.409123        -0.674838
 C        -0.177540         0.207303        -0.320804
 C        -1.388500         0.279056        -0.118259
 C        -2.813225        -0.052407         0.015872
 C        -3.135967        -1.559258         0.272382
 C        -3.704058         0.366231        -1.185712
 O        -3.337728         1.949711        -1.305675
 C        -2.473293         2.397106        -2.303973
 O        -1.985420         1.785255        -3.210331
 H         1.330077         1.644677        -0.708785
 H         1.910642         0.042174         0.020595
 H         1.450531        -0.200273        -1.495469
 H        -3.223150         0.619110         0.847568
 H        -2.309669        -2.057323         0.771338
 H        -4.063065        -1.659988         0.807312
 H        -3.299672        -2.035838        -0.685957
 H        -3.590679        -0.217160        -2.135944
 H        -4.742752         0.348572        -0.961238
 H        -2.258131         3.408745        -2.053674
