19
Iteration:  1653
 C         1.415912        -0.080474         0.825229
 C        -0.038497         0.019637         0.493131
 C        -1.136935        -0.224899         0.063503
 C        -2.436669        -0.182171        -0.543447
 C        -3.086492        -1.462477        -0.491941
 C        -2.496151         0.584911        -1.874651
 O        -2.333530         2.059414        -1.779072
 C        -3.272427         2.731409        -2.447386
 O        -4.241130         2.215867        -2.966847
 H         1.924196         0.015615        -0.180229
 H         1.918748         0.734662         1.415433
 H         1.718562        -0.962092         1.340852
 H        -2.993462         0.455427         0.229115
 H        -2.665584        -2.279411        -1.112331
 H        -3.239338        -1.920414         0.472962
 H        -4.123305        -1.418933        -0.933255
 H        -1.670821         0.332959        -2.542960
 H        -3.411924         0.389251        -2.406766
 H        -2.878888         3.848152        -2.276317
