19
Iteration:  2629
 C         1.115840         0.530574         0.161220
 C        -0.283046         0.099454         0.404625
 C        -1.455064        -0.254677         0.246364
 C        -2.780029        -0.478192        -0.449981
 C        -3.037698        -1.947048        -0.811143
 C        -2.753266         0.414347        -1.675353
 O        -2.787449         1.740609        -1.173957
 C        -3.000959         2.709925        -2.083325
 O        -2.823299         2.753129        -3.292071
 H         1.852703         0.131328         0.874712
 H         1.453336         0.310319        -0.826339
 H         1.245902         1.616757         0.565208
 H        -3.703762        -0.111847         0.072889
 H        -3.779588        -1.910287        -1.633780
 H        -2.012279        -2.319974        -0.994716
 H        -3.467445        -2.251193         0.183025
 H        -1.892180         0.197265        -2.275130
 H        -3.724414         0.166508        -2.214086
 H        -3.074955         3.611195        -1.423195
