19
Iteration:  4804charge 0 multiplicity 1
 C         1.244691        -0.479362         1.082837
 C         0.039945        -0.029990         0.429557
 C        -1.049157         0.252668         0.073386
 C        -2.354813         0.091466        -0.636057
 C        -3.134838        -1.294550        -0.528227
 C        -2.120008         0.768576        -2.081834
 O        -3.393362         1.054053        -2.717305
 C        -3.677612         2.319354        -2.596788
 O        -3.182122         3.091560        -1.806907
 H         2.103445         0.245830         1.019100
 H         1.120441        -0.903959         2.057544
 H         1.615642        -1.417327         0.520230
 H        -2.930549         0.865352        -0.200532
 H        -4.138219        -1.073641        -0.818182
 H        -2.616008        -1.895505        -1.288112
 H        -3.019493        -1.736949         0.466553
 H        -1.428994         1.653937        -1.815814
 H        -1.695031         0.011631        -2.765475
 H        -4.413629         2.617718        -3.332913
