19
Iteration:  2567
 C         1.258692         0.512563         0.579668
 C        -0.079238         0.034460         0.064585
 C        -1.211961        -0.252331        -0.113678
 C        -2.648313        -0.455960        -0.432608
 C        -3.048814        -1.915126        -0.682019
 C        -3.047694         0.426911        -1.631015
 O        -3.296972         1.882363        -1.240350
 C        -2.902229         2.809691        -2.099924
 O        -2.696321         2.572062        -3.265748
 H         1.882799        -0.456184         0.669340
 H         1.979246         1.308962         0.038282
 H         0.989739         0.818268         1.612441
 H        -3.185504        -0.017248         0.445096
 H        -4.088111        -2.064958        -1.044045
 H        -2.503151        -2.391530        -1.481425
 H        -3.083749        -2.484696         0.231479
 H        -2.398147         0.388953        -2.545067
 H        -4.030545         0.122085        -2.039209
 H        -2.725771         3.817747        -1.642493
