19
Iteration:  3475charge 0 multiplicity 1
 C         1.303153        -0.227209         1.186170
 C        -0.014186        -0.212537         0.592538
 C        -1.123106        -0.139567         0.002893
 C        -2.445944        -0.252124        -0.684053
 C        -2.870112        -1.777474        -0.838382
 C        -2.615235         0.621805        -1.917642
 O        -2.600496         2.068062        -1.488139
 C        -3.363798         2.866949        -2.296097
 O        -3.886967         2.662688        -3.353577
 H         2.066031        -0.844893         0.812840
 H         1.787167         0.773503         1.305778
 H         1.145862        -0.637755         2.214844
 H        -3.127057         0.271409        -0.030590
 H        -3.898998        -1.994684        -1.144127
 H        -2.055406        -2.230875        -1.449863
 H        -2.829157        -1.997834         0.235553
 H        -1.827255         0.406368        -2.683221
 H        -3.722665         0.455187        -2.262873
 H        -3.415368         3.795617        -1.721317
