19
Iteration:  2311charge 0 multiplicity 1
 C         0.994014         0.933511         0.164285
 C        -0.269712         0.287689        -0.017187
 C        -1.320068        -0.299290        -0.280497
 C        -2.759150        -0.461520        -0.530335
 C        -3.341923        -2.005764        -0.447978
 C        -3.277601         0.339338        -1.666211
 O        -3.281287         1.721426        -1.163779
 C        -2.504582         2.606954        -1.951025
 O        -1.970144         2.456864        -3.035206
 H         0.799786         1.809896         0.785054
 H         1.797828         0.467441         0.708666
 H         1.171148         1.577104        -0.696737
 H        -3.187320         0.020530         0.380481
 H        -3.475945        -2.214226         0.604633
 H        -4.315099        -2.020625        -0.893401
 H        -2.674064        -2.830837        -0.632095
 H        -2.794393         0.213363        -2.686993
 H        -4.254518        -0.096086        -1.829437
 H        -2.479971         3.629709        -1.437937
