19
Iteration:   412
 C         1.394265         0.172444        -0.122940
 C        -0.069386         0.043093        -0.029060
 C        -1.248144        -0.010085        -0.165120
 C        -2.688835        -0.097479        -0.140062
 C        -3.064501        -1.533514         0.005251
 C        -3.401490         0.618756        -1.146557
 O        -2.973872         2.022361        -1.240072
 C        -2.750441         2.558424        -2.454785
 O        -2.928510         1.985844        -3.534567
 H         1.956969         0.868263         0.551333
 H         1.824628        -0.801882         0.300852
 H         1.718979         0.360340        -1.253660
 H        -2.919425         0.542951         0.784192
 H        -2.287280        -2.147302         0.458226
 H        -3.996022        -1.790604         0.589952
 H        -3.121623        -1.960991        -1.008005
 H        -3.367592         0.086199        -2.105140
 H        -4.415228         0.423610        -0.691043
 H        -2.224491         3.496283        -2.238321
