19
Iteration:  2610charge 0 multiplicity 1
 C         1.081427         0.561756         0.297786
 C        -0.235469         0.059767         0.322228
 C        -1.322050        -0.278114         0.079560
 C        -2.706539        -0.466312        -0.373179
 C        -3.075554        -1.945414        -0.734445
 C        -2.846444         0.431453        -1.736583
 O        -2.884868         1.787436        -1.196494
 C        -3.020941         2.818678        -2.078137
 O        -2.740055         2.664004        -3.242226
 H         1.859285        -0.131974         0.675945
 H         1.520936         0.496325        -0.739679
 H         1.414498         1.452454         0.853862
 H        -3.528923        -0.112425         0.248931
 H        -3.704830        -1.955055        -1.644625
 H        -2.165820        -2.394641        -1.030918
 H        -3.624494        -2.387144         0.076989
 H        -2.028200         0.165615        -2.432900
 H        -3.764908         0.076010        -2.204740
 H        -3.673292         3.622141        -1.726914
