19
Iteration:  1193charge 0 multiplicity 1
 C         0.963226         0.981062         0.482169
 C        -0.242886         0.266463         0.093768
 C        -1.455303        -0.003733        -0.036938
 C        -2.755504        -0.340676        -0.651748
 C        -3.358751        -1.917018        -0.731944
 C        -2.752941         0.099623        -2.155465
 O        -2.109299         1.321937        -2.478531
 C        -2.469123         2.536886        -1.945260
 O        -3.518091         2.752814        -1.391409
 H         1.078752         2.000449        -0.081937
 H         1.015092         0.916060         1.580608
 H         1.792065         0.283976         0.187267
 H        -3.594386         0.144877        -0.159553
 H        -2.793936        -2.840211        -0.531004
 H        -4.332058        -2.150238        -0.224892
 H        -3.579291        -1.836615        -1.783412
 H        -2.248647        -0.653785        -2.732964
 H        -3.761274         0.244933        -2.471000
 H        -1.879801         3.448669        -2.124463
