19
Iteration:  2879
 C         1.353271        -0.187311         0.841899
 C        -0.076601        -0.072061         0.563936
 C        -1.203394        -0.047883         0.139680
 C        -2.567096        -0.257305        -0.444904
 C        -2.797979        -1.787670        -0.813046
 C        -2.675425         0.501816        -1.810332
 O        -2.935053         1.900272        -1.403523
 C        -3.163144         2.900094        -2.334494
 O        -3.606567         2.714244        -3.443553
 H         2.058223         0.475811         0.345017
 H         1.464647         0.279672         1.936902
 H         1.577709        -1.235717         0.863608
 H        -3.369625         0.028900         0.260749
 H        -3.769724        -1.784936        -1.254124
 H        -1.979240        -2.087223        -1.460090
 H        -2.696274        -2.312835         0.105019
 H        -1.743982         0.567251        -2.335699
 H        -3.508435         0.000958        -2.418241
 H        -3.036893         3.885394        -1.840632
