19
Iteration:   496
 C         1.514099         0.057590         0.017667
 C         0.052803        -0.065169         0.127512
 C        -1.185424        -0.065923        -0.041932
 C        -2.616117        -0.067268        -0.066131
 C        -3.189101        -1.558060         0.025703
 C        -3.081933         0.535906        -1.394837
 O        -2.825466         1.950245        -1.330262
 C        -2.931840         2.649896        -2.509190
 O        -3.384059         2.219139        -3.536862
 H         1.504193         1.041130        -0.710042
 H         2.190138         0.268655         0.916301
 H         1.986898        -0.791857        -0.469866
 H        -2.998837         0.501119         0.794771
 H        -3.266920        -1.628036         1.108047
 H        -4.079394        -1.784600        -0.573469
 H        -2.474586        -2.292044        -0.362517
 H        -2.479355         0.122056        -2.280275
 H        -4.154606         0.445262        -1.655225
 H        -2.842638         3.790503        -2.438264
