19
Iteration:   134
 C         1.095812         0.622774        -0.970225
 C        -0.176734         0.138387        -0.337949
 C        -1.381859         0.101601        -0.232544
 C        -2.833096        -0.061651         0.007578
 C        -3.252183        -1.468976         0.254985
 C        -3.662636         0.453055        -1.184797
 O        -3.450415         1.885869        -1.319598
 C        -2.388312         2.402529        -2.205927
 O        -1.674853         1.673702        -2.846464
 H         0.877529         0.926918        -2.055975
 H         1.368348         1.518383        -0.365920
 H         1.896491        -0.130923        -1.078086
 H        -3.133484         0.587932         0.835205
 H        -3.325608        -1.739743         1.316773
 H        -4.294780        -1.512281        -0.117697
 H        -2.626580        -2.228299        -0.252932
 H        -3.408145        -0.134330        -2.050598
 H        -4.723865         0.273510        -0.828349
 H        -2.615334         3.440662        -2.338571
