19
Iteration:  1150
 C         0.946491         0.784852         0.520904
 C        -0.366499         0.340056         0.267003
 C        -1.371239        -0.088298        -0.307096
 C        -2.713521        -0.248320        -0.798453
 C        -3.266179        -1.710405        -0.525796
 C        -2.772918         0.144684        -2.262393
 O        -2.029177         1.371446        -2.500315
 C        -2.628500         2.477837        -2.040372
 O        -3.562272         2.612747        -1.292480
 H         0.898307         1.875121         1.015544
 H         1.291663         0.134385         1.414606
 H         1.745664         0.646328        -0.250440
 H        -3.257350         0.526718        -0.258366
 H        -2.691842        -2.073767         0.359114
 H        -4.363635        -1.684100        -0.246253
 H        -3.290010        -2.461645        -1.342747
 H        -2.184797        -0.506121        -2.900709
 H        -3.785708         0.247532        -2.648856
 H        -2.031786         3.364047        -2.315218
