19
Iteration:  1840
 C         1.513573         0.085054         0.703827
 C        -0.003390         0.045010         0.428336
 C        -1.127071        -0.134654        -0.044583
 C        -2.619446        -0.191992        -0.298881
 C        -2.863995        -1.810435        -0.668934
 C        -3.112238         0.580875        -1.508830
 O        -2.895573         2.059089        -1.337732
 C        -3.090767         2.749394        -2.454318
 O        -3.464310         2.343474        -3.533879
 H         1.645272        -0.493676         1.688146
 H         2.125975        -0.654567         0.050119
 H         1.861680         1.082152         0.694931
 H        -3.189444        -0.005370         0.602984
 H        -1.887120        -2.196314        -1.058945
 H        -3.162488        -2.237023         0.322792
 H        -3.678619        -1.928370        -1.431896
 H        -2.547763         0.221388        -2.342922
 H        -4.184891         0.395954        -1.728035
 H        -2.809920         3.737580        -2.370577
