19
Iteration:  4785charge 0 multiplicity 1
 C         1.364694        -0.523075         1.017478
 C         0.006978        -0.186179         0.594942
 C        -1.086001         0.071379         0.065999
 C        -2.395596         0.183039        -0.599986
 C        -3.035598        -1.213118        -0.569853
 C        -2.096813         0.740654        -1.954339
 O        -3.322131         1.046034        -2.743184
 C        -3.785898         2.355178        -2.627929
 O        -3.268733         3.225807        -1.962727
 H         1.957910         0.448335         1.152401
 H         1.300066        -0.987356         2.041954
 H         1.925025        -1.225002         0.399817
 H        -3.108139         0.890576        -0.068156
 H        -4.169672        -0.997820        -0.601641
 H        -2.774692        -1.954871        -1.315120
 H        -2.716975        -1.634431         0.397873
 H        -1.607119         1.773857        -1.745562
 H        -1.480304         0.000226        -2.524388
 H        -4.765060         2.436506        -3.196470
