19
Iteration:  2756
 C         1.136624         0.365309         0.939983
 C        -0.068782         0.076776         0.213333
 C        -1.121985        -0.298157        -0.184353
 C        -2.553975        -0.505161        -0.439876
 C        -3.011881        -1.884833        -1.038889
 C        -3.219653         0.555484        -1.410201
 O        -2.726333         1.923204        -1.209481
 C        -2.671489         2.723970        -2.372211
 O        -3.404026         2.641313        -3.337181
 H         1.084414         1.168426         1.714339
 H         1.684294        -0.478464         1.571422
 H         1.865172         0.575007         0.174789
 H        -2.947772        -0.271539         0.560184
 H        -3.972288        -1.742877        -1.429099
 H        -2.297851        -2.152239        -1.805060
 H        -3.050362        -2.564230        -0.172608
 H        -3.178289         0.189716        -2.450123
 H        -4.321052         0.602787        -1.272545
 H        -1.860636         3.478471        -2.274439
