19
Iteration:   909charge 0 multiplicity 1
 C         1.318039         0.032691         0.754167
 C        -0.013972        -0.154615         0.293212
 C        -1.154665        -0.022780        -0.118724
 C        -2.507809         0.051556        -0.632551
 C        -3.153534        -1.335878        -0.160454
 C        -2.522568         0.281188        -2.130243
 O        -2.167491         1.724106        -2.282265
 C        -3.108977         2.632673        -2.319180
 O        -4.333711         2.464726        -2.270184
 H         2.199222        -0.034657        -0.008595
 H         1.409321         0.935124         1.339895
 H         1.582433        -0.836829         1.431521
 H        -3.099486         0.901701        -0.334587
 H        -2.607709        -1.656821         0.766576
 H        -4.227309        -1.260809         0.108086
 H        -2.990051        -2.111393        -0.939548
 H        -1.740476        -0.299623        -2.638008
 H        -3.518333         0.156088        -2.526699
 H        -2.496483         3.596175        -2.233014
