19
Iteration:  1145charge 0 multiplicity 1
 C         0.991758         0.770390         0.579293
 C        -0.398165         0.319206         0.266360
 C        -1.380917        -0.032655        -0.344411
 C        -2.689305        -0.275577        -0.805100
 C        -3.284118        -1.694115        -0.522402
 C        -2.768225         0.153640        -2.287942
 O        -2.012826         1.354778        -2.508324
 C        -2.644169         2.483649        -2.045581
 O        -3.572564         2.605656        -1.282416
 H         0.907790         1.728535         0.922657
 H         1.451940         0.163328         1.311136
 H         1.685499         0.756290        -0.290652
 H        -3.272129         0.443428        -0.175088
 H        -2.832641        -1.972158         0.423238
 H        -4.296899        -1.619990        -0.187423
 H        -3.155135        -2.512045        -1.236961
 H        -2.256792        -0.592936        -2.929799
 H        -3.819658         0.305844        -2.602766
 H        -2.168374         3.457780        -2.278457
