19
Iteration:   372charge 0 multiplicity 1
 C         1.504117         0.233585        -0.234097
 C        -0.037346         0.104203        -0.206921
 C        -1.284709         0.047625        -0.164174
 C        -2.741883        -0.086497         0.020755
 C        -3.175990        -1.565568         0.024258
 C        -3.532632         0.573608        -1.142607
 O        -3.179641         2.001204        -1.216574
 C        -2.625291         2.490230        -2.393453
 O        -2.680651         1.944637        -3.505127
 H         1.721513         0.531782         0.722662
 H         1.987985        -0.693519        -0.558125
 H         1.959971         1.028044        -0.838503
 H        -3.024589         0.382784         0.924672
 H        -2.297895        -2.068748         0.482978
 H        -4.076151        -1.806516         0.593218
 H        -3.184223        -1.890221        -1.028242
 H        -3.355904         0.181092        -2.107084
 H        -4.610013         0.612365        -0.919157
 H        -1.842908         3.246999        -2.212345
