19
Iteration:   664charge 0 multiplicity 1
 C         1.611564        -0.097536         0.665227
 C         0.214054        -0.277914         0.073936
 C        -0.996775        -0.111447         0.062571
 C        -2.425707         0.008808        -0.204473
 C        -3.158027        -1.379013        -0.188336
 C        -2.966288         0.567640        -1.548667
 O        -2.462002         1.910059        -1.817519
 C        -3.151539         2.649808        -2.638551
 O        -4.209684         2.398405        -3.207821
 H         1.979943        -1.246346         1.014029
 H         2.505225         0.180504        -0.004821
 H         1.576508         0.467321         1.532997
 H        -2.755508         0.730745         0.528610
 H        -3.021758        -1.824275         0.802444
 H        -4.121997        -1.541746        -0.655743
 H        -2.541179        -1.918783        -0.906467
 H        -2.926204        -0.098495        -2.386150
 H        -4.021618         0.603504        -1.236511
 H        -2.682604         3.620996        -2.597213
