19
Iteration:  4379charge 0 multiplicity 1
 C         1.389342        -0.235791         1.020466
 C        -0.017096        -0.478208         0.610546
 C        -1.162268        -0.437027         0.191615
 C        -2.401666        -0.166251        -0.519553
 C        -2.825104        -1.412711        -1.304170
 C        -2.094749         1.180806        -1.256055
 O        -3.371995         1.956068        -1.264540
 C        -3.811023         2.561993        -2.498119
 O        -3.333572         2.549889        -3.603838
 H         1.849873        -0.029110         0.014727
 H         1.428489         0.538613         1.751317
 H         2.005862        -1.115108         1.280903
 H        -3.220078         0.095378         0.123743
 H        -3.942144        -1.494605        -1.179458
 H        -2.708263        -1.353294        -2.428405
 H        -2.480731        -2.414782        -1.038874
 H        -1.376260         1.698468        -0.675641
 H        -1.717737         0.959885        -2.257121
 H        -4.716443         3.094344        -2.265864
