19
Iteration:  1285charge 0 multiplicity 1
 C         0.962884         0.804050         0.534083
 C        -0.321772         0.331199         0.125037
 C        -1.517700         0.049721        -0.127944
 C        -2.765395        -0.339797        -0.752025
 C        -3.126323        -1.826688        -0.740399
 C        -2.869831         0.055828        -2.197708
 O        -2.054191         1.276877        -2.371982
 C        -2.500821         2.584495        -1.947263
 O        -3.578730         2.788591        -1.412512
 H         1.875304         0.527695        -0.065506
 H         0.836439         1.933461         0.685625
 H         1.119027         0.538731         1.612134
 H        -3.534083         0.263216        -0.279240
 H        -3.434779        -2.210104        -1.715260
 H        -2.305090        -2.459959        -0.550528
 H        -4.019458        -1.933193        -0.086087
 H        -2.390661        -0.658216        -2.907603
 H        -3.964626         0.153874        -2.434218
 H        -1.591329         3.118580        -2.040860
