19
Iteration:   102charge 0 multiplicity 1
 C         1.175907         0.527781        -0.872130
 C        -0.302487         0.434659        -0.564406
 C        -1.331487        -0.011747        -0.107268
 C        -2.830960        -0.154119         0.029770
 C        -3.230700        -1.610759         0.319059
 C        -3.531531         0.549217        -1.224501
 O        -3.493065         2.016315        -1.344686
 C        -2.419591         2.460594        -2.249237
 O        -1.801766         1.591574        -2.866495
 H         1.425468         1.223520        -1.559446
 H         1.738455         0.884008         0.084224
 H         1.545955        -0.525360        -1.020146
 H        -3.181348         0.403851         0.870644
 H        -3.002369        -1.792540         1.388636
 H        -4.342117        -1.652516         0.203323
 H        -2.762159        -2.397940        -0.320662
 H        -3.125728         0.118058        -2.134293
 H        -4.658312         0.335182        -1.246363
 H        -2.458881         3.544367        -2.487861
