19
Iteration:  3820
 C         1.502586        -1.021985         0.749382
 C         0.252281        -0.340466         0.281875
 C        -0.912801         0.009024         0.082091
 C        -2.357752         0.277396        -0.181973
 C        -2.856627        -0.969037        -1.071882
 C        -2.520570         1.595263        -0.954647
 O        -3.838697         1.801514        -1.460332
 C        -3.890233         2.193520        -2.738434
 O        -2.946059         2.168644        -3.476172
 H         2.506023        -0.384779         0.768607
 H         1.345655        -1.409644         1.728492
 H         1.882454        -1.860896         0.271601
 H        -2.948369         0.339144         0.697024
 H        -3.802211        -1.230832        -0.625230
 H        -3.076949        -0.710590        -2.145769
 H        -2.106509        -1.687914        -0.696094
 H        -2.404448         2.466804        -0.089838
 H        -1.762504         1.744005        -1.730842
 H        -4.915230         2.509900        -2.838012
