19
Iteration:  4340charge 0 multiplicity 1
 C         1.374944        -0.513740         1.002432
 C         0.036989        -0.267538         0.599648
 C        -1.134521        -0.251815         0.250364
 C        -2.367780        -0.133375        -0.449948
 C        -2.706982        -1.375923        -1.451550
 C        -2.249925         1.104257        -1.311661
 O        -3.466920         2.072773        -1.247325
 C        -3.775822         2.601236        -2.490278
 O        -3.345142         2.318592        -3.579897
 H         2.068296         0.254769         0.677396
 H         1.599797        -0.321430         2.143155
 H         1.623645        -1.550782         0.888158
 H        -3.214067        -0.107020         0.313646
 H        -3.691943        -1.544554        -1.093285
 H        -2.528888        -0.856515        -2.394375
 H        -2.061306        -2.252937        -1.253116
 H        -1.511780         1.865574        -0.818448
 H        -2.216557         1.001684        -2.395736
 H        -4.439442         3.519108        -2.254722
