19
Iteration:  2310charge 0 multiplicity 1
 C         0.992114         0.938236         0.163771
 C        -0.265680         0.288165        -0.017094
 C        -1.328876        -0.306262        -0.283851
 C        -2.758525        -0.459244        -0.527307
 C        -3.341031        -2.001555        -0.451282
 C        -3.282310         0.334700        -1.664155
 O        -3.276197         1.714571        -1.161596
 C        -2.498992         2.609441        -1.948429
 O        -1.964695         2.457589        -3.037305
 H         0.795770         1.816989         0.830509
 H         1.781696         0.466628         0.691617
 H         1.139291         1.596255        -0.758146
 H        -3.173400         0.041521         0.371313
 H        -3.497211        -2.228621         0.615965
 H        -4.309078        -2.000983        -0.912720
 H        -2.656944        -2.806069        -0.603554
 H        -2.821239         0.215184        -2.696090
 H        -4.257642        -0.093080        -1.820069
 H        -2.530126         3.615203        -1.425112
