19
Iteration:  2390
 C         1.246725         0.452495         0.274866
 C        -0.254525         0.228996         0.212635
 C        -1.422601         0.068932        -0.017772
 C        -2.816571        -0.460425        -0.372305
 C        -2.866718        -1.986586        -0.696299
 C        -3.390151         0.440603        -1.534227
 O        -3.425018         1.879062        -1.307350
 C        -2.858680         2.707965        -2.237366
 O        -2.070909         2.414345        -3.108355
 H         1.658881         1.381703        -0.003095
 H         1.624881         0.306688         1.332250
 H         1.882107        -0.285867        -0.188793
 H        -3.422186        -0.319139         0.562454
 H        -2.007564        -2.329650        -0.218217
 H        -3.661298        -2.579185        -0.295203
 H        -2.937400        -2.121828        -1.759168
 H        -2.768903         0.224717        -2.365916
 H        -4.429971         0.064126        -1.600914
 H        -2.858383         3.778956        -1.992767
