19
Iteration:   812
 C         1.472925        -0.104516         0.654531
 C         0.062264        -0.253062         0.286228
 C        -1.090288        -0.032506        -0.011776
 C        -2.520244         0.066164        -0.420362
 C        -3.191459        -1.395552        -0.169086
 C        -2.551846         0.474801        -1.885997
 O        -2.241478         1.907563        -2.028354
 C        -3.184944         2.638605        -2.540495
 O        -4.368676         2.359685        -2.651343
 H         1.995683         0.799918         0.856727
 H         1.777505        -0.772244         1.448351
 H         1.967110        -0.353110        -0.418603
 H        -3.047447         0.883544         0.163561
 H        -3.558584        -1.408688         0.838688
 H        -4.088558        -1.390513        -0.758925
 H        -2.476249        -2.169964        -0.180711
 H        -1.795935        -0.139153        -2.409453
 H        -3.535702         0.295050        -2.308713
 H        -2.664227         3.482591        -2.948202
