19
Iteration:  1684
 C         1.526899        -0.052009         0.908903
 C         0.063133        -0.242651         0.390776
 C        -1.103657         0.015673         0.064699
 C        -2.529166        -0.108204        -0.411196
 C        -3.061838        -1.509259        -0.524240
 C        -2.569363         0.553213        -1.829366
 O        -2.449431         1.957644        -1.766476
 C        -3.331326         2.716561        -2.379984
 O        -4.163941         2.348123        -3.173654
 H         2.143865        -0.491619         0.080003
 H         1.655361         1.022134         1.006689
 H         1.764763        -0.758310         1.769421
 H        -3.146754         0.492165         0.270191
 H        -3.203010        -1.621179        -1.614428
 H        -2.418171        -2.307509        -0.092986
 H        -4.001969        -1.644216         0.118450
 H        -1.595170         0.237884        -2.306540
 H        -3.440654         0.200355        -2.402882
 H        -3.113018         3.731890        -2.064105
