19
Iteration:  4264charge 0 multiplicity 1
 C         1.438542        -0.867322         1.279749
 C         0.249263        -0.583187         0.569349
 C        -0.853931        -0.211159         0.139283
 C        -2.204328         0.146443        -0.440559
 C        -2.787605        -0.949669        -1.371013
 C        -2.152721         1.498659        -1.185034
 O        -3.536508         1.991865        -1.407431
 C        -4.157873         2.212126        -2.650709
 O        -3.512274         2.330221        -3.640513
 H         1.922576        -0.001881         1.727204
 H         1.117435        -1.687278         2.027618
 H         2.282267        -1.323339         0.598373
 H        -2.916745         0.292599         0.402337
 H        -3.511366        -0.489848        -2.051916
 H        -1.790110        -1.161168        -1.810668
 H        -3.310550        -1.717686        -0.779010
 H        -1.696442         2.309573        -0.420579
 H        -1.690207         1.549610        -2.165793
 H        -5.245148         2.350494        -2.499888
