19
Iteration:   992charge 0 multiplicity 1
 C         1.319334         0.092236         0.956804
 C         0.024627         0.015522         0.263803
 C        -1.149938         0.170400        -0.019963
 C        -2.558269        -0.063547        -0.627331
 C        -3.062119        -1.523281        -0.450279
 C        -2.745089         0.233781        -2.135507
 O        -2.343145         1.479430        -2.678892
 C        -3.007003         2.645998        -2.340603
 O        -4.083494         2.699475        -1.798464
 H         1.778332        -0.902169         0.986855
 H         1.997860         0.631068         0.227362
 H         1.356054         0.677954         2.047938
 H        -3.272384         0.670476        -0.147558
 H        -3.768433        -1.476340         0.366363
 H        -3.476770        -1.942110        -1.372094
 H        -2.227813        -2.117037        -0.016954
 H        -2.241962        -0.588384        -2.688732
 H        -3.820535         0.073292        -2.287924
 H        -2.580020         3.491743        -2.873293
