19
Iteration:  3036
 C         1.300417        -0.168015         1.113807
 C         0.051301        -0.355863         0.381502
 C        -1.014074        -0.260456        -0.125829
 C        -2.403382        -0.217063        -0.507097
 C        -2.810687        -1.685508        -0.889079
 C        -2.764022         0.705325        -1.578532
 O        -3.001720         2.198259        -1.274675
 C        -3.517916         2.819659        -2.358402
 O        -3.425480         2.558915        -3.538601
 H         1.870774        -1.128289         1.252559
 H         2.024725         0.441938         0.492040
 H         1.274495         0.406839         2.123288
 H        -2.935606        -0.099112         0.473874
 H        -3.918271        -1.813805        -0.853542
 H        -2.425027        -2.018504        -1.860306
 H        -2.435333        -2.458903        -0.173293
 H        -2.299905         0.558889        -2.580988
 H        -3.745418         0.380595        -1.867763
 H        -3.896668         3.804602        -2.072367
