19
Iteration:  3714charge 0 multiplicity 1
 C         1.541486        -0.855250         0.852193
 C         0.169476        -0.527782         0.531165
 C        -0.905880        -0.134945         0.149851
 C        -2.248242         0.189771        -0.285632
 C        -2.885934        -0.974164        -1.057737
 C        -2.269540         1.446190        -1.109588
 O        -3.592572         1.792686        -1.466754
 C        -3.999271         2.264254        -2.637598
 O        -3.315018         2.427831        -3.627696
 H         1.540862        -0.410684         1.843046
 H         1.550367        -2.016296         1.001790
 H         2.223076        -0.430327         0.059150
 H        -2.861856         0.358219         0.659879
 H        -3.728444        -0.484719        -1.550839
 H        -2.140954        -1.455950        -1.726877
 H        -3.341546        -1.778388        -0.417006
 H        -1.831127         2.293503        -0.655953
 H        -1.815643         1.264349        -2.071598
 H        -5.134027         2.460992        -2.586226
