19
Iteration:  4131
 C         1.379057        -1.113217         1.045349
 C         0.211251        -0.381799         0.558047
 C        -0.881725         0.101074         0.210277
 C        -2.195556         0.241398        -0.326409
 C        -2.572247        -0.995248        -1.280457
 C        -2.243983         1.581323        -1.126476
 O        -3.641496         2.003149        -1.400668
 C        -4.068579         2.319033        -2.629354
 O        -3.526025         2.016263        -3.658898
 H         0.951975        -1.753923         1.763244
 H         1.830851        -1.796430         0.244722
 H         2.228823        -0.500003         1.252740
 H        -2.902280         0.258223         0.469970
 H        -1.641135        -1.513702        -1.519388
 H        -3.241209        -1.802104        -0.919965
 H        -3.016234        -0.843548        -2.239276
 H        -1.843457         2.481564        -0.535157
 H        -1.628557         1.315243        -2.034897
 H        -4.846586         3.042630        -2.579537
