19
Iteration:   932
 C         1.317603        -0.017213         0.827347
 C        -0.006307         0.057546         0.300814
 C        -1.103160        -0.011092        -0.206861
 C        -2.546237        -0.136016        -0.614267
 C        -3.153062        -1.406027        -0.135018
 C        -2.703569         0.372953        -2.222315
 O        -2.079279         1.741073        -2.350231
 C        -3.077355         2.661860        -2.377748
 O        -4.262832         2.421678        -2.115613
 H         2.155459        -0.437980         0.175390
 H         1.558399         1.023282         1.046108
 H         1.430746        -0.576230         1.839838
 H        -3.186508         0.623228        -0.142412
 H        -3.063267        -1.468379         0.970502
 H        -4.243015        -1.416375        -0.331185
 H        -2.707075        -2.299652        -0.566439
 H        -2.105621        -0.237507        -2.921088
 H        -3.753282         0.508665        -2.540675
 H        -2.567564         3.640915        -2.577393
