19
Iteration:   340
 C         1.337970         0.274920        -0.341411
 C        -0.143261         0.371723        -0.384627
 C        -1.269081        -0.039620        -0.229384
 C        -2.744002        -0.139172         0.000011
 C        -3.257100        -1.588431         0.082510
 C        -3.419179         0.608114        -1.147537
 O        -3.131603         2.019467        -1.155005
 C        -2.686230         2.486381        -2.376529
 O        -2.442819         1.817665        -3.357094
 H         1.717473        -0.098569         0.652009
 H         1.703772        -0.546247        -0.959713
 H         1.905119         1.130448        -0.547583
 H        -2.975444         0.383084         0.961262
 H        -2.838414        -2.037372         0.991905
 H        -4.317321        -1.760706         0.186884
 H        -2.803277        -2.193095        -0.708013
 H        -3.168907         0.140223        -2.074069
 H        -4.493120         0.497826        -0.964223
 H        -2.568151         3.628128        -2.221970
