19
Iteration:  4666charge 0 multiplicity 1
 C         1.505840        -0.817567         1.109805
 C         0.272492        -0.474820         0.419778
 C        -0.870131        -0.103207         0.053808
 C        -2.291162         0.172589        -0.374303
 C        -3.071086        -1.256330        -0.598559
 C        -2.300039         1.306024        -1.382300
 O        -3.323500         1.152888        -2.355362
 C        -3.945982         2.288965        -2.925843
 O        -3.483177         3.360467        -2.707011
 H         1.442488        -0.446639         2.182867
 H         1.913426        -1.837730         0.802849
 H         2.194400        -0.200445         0.607410
 H        -2.946730         0.581071         0.486940
 H        -3.889562        -1.323524        -1.431751
 H        -2.353697        -2.094753        -0.806716
 H        -3.589636        -1.486624         0.387233
 H        -2.549166         2.202987        -0.787432
 H        -1.451703         1.290938        -2.023611
 H        -4.693538         1.951603        -3.700145
