19
Iteration:  1340charge 0 multiplicity 1
 C         1.041005         0.647325         0.821775
 C        -0.299628         0.297937         0.276683
 C        -1.400594        -0.008825        -0.166253
 C        -2.663554        -0.327380        -0.832101
 C        -3.128392        -1.787405        -0.554733
 C        -2.804866         0.273635        -2.351904
 O        -2.147577         1.417029        -2.622534
 C        -2.678552         2.604080        -2.097852
 O        -3.601046         2.610380        -1.337962
 H         1.615887        -0.275991         0.670601
 H         1.352788         1.407624         0.058091
 H         0.936278         1.076210         1.796375
 H        -3.429718         0.252690        -0.361772
 H        -4.167106        -1.736309        -0.250336
 H        -3.155624        -2.465001        -1.352749
 H        -2.557638        -2.349933         0.160431
 H        -2.442881        -0.474787        -3.081560
 H        -3.900786         0.447600        -2.510135
 H        -2.259251         3.512801        -2.521812
