19
Iteration:  4012
 C         1.441243        -0.457868         0.959211
 C         0.166554        -0.362807         0.268461
 C        -0.972259        -0.330478        -0.195167
 C        -2.377850         0.024764        -0.393557
 C        -3.246673        -1.020179        -1.347351
 C        -2.225995         1.473766        -0.918001
 O        -3.476396         2.210297        -1.195067
 C        -3.676125         2.340229        -2.560367
 O        -3.184741         1.685221        -3.436201
 H         1.905097        -1.315196         0.600791
 H         2.028720         0.519762         0.789380
 H         1.331065        -0.319886         2.108125
 H        -2.719823         0.047113         0.682343
 H        -4.248640        -1.221383        -0.786842
 H        -3.480036        -0.425825        -2.283243
 H        -2.748925        -1.963190        -1.471815
 H        -1.647205         2.107244        -0.256691
 H        -1.848874         1.420710        -1.939140
 H        -4.528909         3.019703        -2.739547
