19
Iteration:  1078charge 0 multiplicity 1
 C         1.129091         0.389820         0.856688
 C        -0.105960         0.311398         0.111812
 C        -1.277920         0.134159        -0.216227
 C        -2.672842        -0.094492        -0.663686
 C        -3.165880        -1.583088        -0.507899
 C        -2.750427         0.132249        -2.201482
 O        -2.325198         1.364341        -2.731926
 C        -2.782624         2.560304        -2.159193
 O        -3.746441         2.590681        -1.414538
 H         0.758477         0.388386         1.820459
 H         1.900617        -0.357127         0.668236
 H         1.715395         1.346445         0.715993
 H        -3.298566         0.570581        -0.019308
 H        -3.942397        -1.559411         0.236680
 H        -3.572211        -2.033945        -1.407567
 H        -2.403770        -2.356518        -0.316518
 H        -1.973862        -0.558605        -2.638391
 H        -3.781703        -0.052800        -2.623068
 H        -1.953071         3.357814        -2.359802
