19
Iteration:  2460charge 0 multiplicity 1
 C         1.234305         0.092775         0.522845
 C        -0.130727         0.170085         0.101241
 C        -1.314098         0.301897        -0.036672
 C        -2.656072        -0.239041        -0.400976
 C        -2.633834        -1.735136        -0.832949
 C        -3.381602         0.460676        -1.507744
 O        -3.591195         1.835469        -1.278958
 C        -2.935368         2.689554        -2.208318
 O        -2.340064         2.270427        -3.175075
 H         2.115947         0.078523        -0.159334
 H         1.415774         0.733179         1.363831
 H         1.413326        -0.843054         1.026786
 H        -3.327546        -0.032393         0.441831
 H        -2.974005        -2.332415         0.058222
 H        -3.405815        -1.887516        -1.642134
 H        -1.749384        -1.956639        -1.454082
 H        -2.866670         0.200727        -2.475434
 H        -4.337736        -0.026664        -1.372244
 H        -2.789295         3.721472        -1.802487
