19
Iteration:  1041charge 0 multiplicity 1
 C         1.171162         0.227368         0.806863
 C        -0.213640         0.225252         0.437549
 C        -1.210182         0.064409        -0.232108
 C        -2.564201        -0.155401        -0.757396
 C        -2.971261        -1.582187        -0.357681
 C        -2.791675         0.216940        -2.264285
 O        -2.241709         1.450196        -2.645753
 C        -3.049582         2.591143        -2.401891
 O        -3.803890         2.720901        -1.481760
 H         1.326390        -0.444324         1.718379
 H         1.917739        -0.160724         0.110815
 H         1.351101         1.166636         1.122612
 H        -3.263094         0.545487        -0.287951
 H        -3.821561        -1.521772         0.389435
 H        -3.386545        -2.033731        -1.301352
 H        -2.210066        -2.105469         0.218035
 H        -2.305304        -0.571391        -2.855021
 H        -3.864859         0.077500        -2.500873
 H        -2.674676         3.494623        -2.969680
