19
Iteration:  4529charge 0 multiplicity 1
 C         1.564857        -0.679249         0.959283
 C         0.175542        -0.440479         0.530964
 C        -0.989153        -0.082653         0.293575
 C        -2.324273         0.005517        -0.285644
 C        -2.776956        -1.346971        -1.046287
 C        -2.368544         1.181192        -1.275824
 O        -3.809656         1.542819        -1.771849
 C        -3.973016         2.418812        -2.790825
 O        -3.058423         3.019984        -3.250690
 H         1.898873        -1.652844         1.072095
 H         2.262649        -0.332014         0.246305
 H         1.606986        -0.101396         1.947531
 H        -3.133965         0.282106         0.457125
 H        -3.840344        -1.298761        -1.349848
 H        -2.152596        -1.568094        -1.852174
 H        -2.720649        -2.168997        -0.324702
 H        -2.019875         1.976061        -0.648249
 H        -1.875844         0.953744        -2.294790
 H        -5.075930         2.470985        -3.155256
