19
Iteration:  4589
 C         1.416308        -0.920097         0.749402
 C         0.103849        -0.223445         0.715128
 C        -1.079667         0.106629         0.442701
 C        -2.334574         0.139993        -0.306380
 C        -2.802789        -1.220710        -0.994628
 C        -2.248986         1.296796        -1.373010
 O        -3.495423         1.155420        -2.038108
 C        -3.893081         2.207937        -2.737783
 O        -3.269708         3.191787        -3.016909
 H         1.172676        -1.648831         1.620308
 H         1.711824        -1.248666        -0.306916
 H         2.309992        -0.426570         1.071713
 H        -3.098674         0.501860         0.434689
 H        -3.854518        -1.375397        -0.624756
 H        -2.637645        -1.123806        -2.139650
 H        -2.221563        -2.058483        -0.471969
 H        -2.040265         2.333335        -0.910143
 H        -1.476079         1.186878        -2.099914
 H        -4.794156         1.899302        -3.272820
