19
Iteration:  4255charge 0 multiplicity 1
 C         1.417773        -0.929401         1.314051
 C         0.248661        -0.571591         0.549918
 C        -0.842409        -0.226371         0.168096
 C        -2.116819         0.157379        -0.408289
 C        -2.815797        -0.830094        -1.368416
 C        -2.130737         1.602868        -1.154295
 O        -3.570658         1.889226        -1.400453
 C        -4.151078         2.181629        -2.641589
 O        -3.553620         2.335926        -3.699257
 H         1.853771        -0.073209         1.824782
 H         1.245586        -1.795806         1.987313
 H         2.247927        -1.187642         0.477551
 H        -2.730426         0.377556         0.452529
 H        -3.347983        -0.271320        -2.212255
 H        -2.124466        -1.463171        -1.969446
 H        -3.376299        -1.689832        -0.891815
 H        -1.555564         2.391905        -0.546761
 H        -1.554791         1.573401        -2.108612
 H        -5.230049         2.147129        -2.574904
