19
Iteration:  1293charge 0 multiplicity 1
 C         0.988301         0.821777         0.597079
 C        -0.377494         0.306377         0.125345
 C        -1.482439         0.017693        -0.179405
 C        -2.745427        -0.270216        -0.753988
 C        -3.131912        -1.785372        -0.780307
 C        -2.830225         0.045327        -2.165579
 O        -2.127913         1.301992        -2.388230
 C        -2.509659         2.486254        -1.934165
 O        -3.554562         2.798482        -1.428017
 H         1.792948         0.333018        -0.044730
 H         1.066755         1.946807         0.517833
 H         0.984252         0.458052         1.582626
 H        -3.539102         0.212026        -0.189202
 H        -3.623604        -2.145769        -1.672851
 H        -2.244426        -2.399500        -0.546401
 H        -3.701433        -2.074898         0.132906
 H        -2.295606        -0.721106        -2.718607
 H        -3.852231         0.155269        -2.479818
 H        -1.807263         3.395035        -2.040391
