19
Iteration:  4807charge 0 multiplicity 1
 C         1.245306        -0.475010         1.076141
 C         0.058759        -0.010681         0.422303
 C        -1.059921         0.251065         0.058634
 C        -2.369682         0.100683        -0.645760
 C        -3.124752        -1.290320        -0.535835
 C        -2.110401         0.744487        -2.077911
 O        -3.415658         1.041688        -2.730029
 C        -3.649723         2.311584        -2.605310
 O        -3.169801         3.097427        -1.767189
 H         2.168911         0.229299         1.058491
 H         1.025746        -0.860809         2.127643
 H         1.553422        -1.401419         0.594780
 H        -3.015341         0.913941        -0.205425
 H        -4.194375        -1.033587        -0.921514
 H        -2.613874        -1.955510        -1.207994
 H        -2.990705        -1.725566         0.463479
 H        -1.429357         1.688114        -1.859403
 H        -1.753519        -0.080091        -2.734117
 H        -4.487992         2.652421        -3.298915
