19
Iteration:  4801
 C         1.255296        -0.489943         1.076719
 C         0.045423        -0.050949         0.448165
 C        -1.067271         0.248361         0.071770
 C        -2.337811         0.091701        -0.628893
 C        -3.126927        -1.287793        -0.527172
 C        -2.123857         0.773804        -2.073812
 O        -3.368879         1.059017        -2.708042
 C        -3.706674         2.338178        -2.588925
 O        -3.191236         3.090024        -1.838234
 H         2.006428         0.236593         1.010661
 H         1.175174        -0.912350         2.075025
 H         1.649281        -1.350233         0.479884
 H        -2.955180         0.875404        -0.142936
 H        -4.160708        -1.125776        -0.737764
 H        -2.647454        -1.892611        -1.343908
 H        -3.057150        -1.740784         0.466445
 H        -1.515335         1.569065        -1.860438
 H        -1.615863         0.113487        -2.780894
 H        -4.406024         2.597105        -3.390257
