19
Iteration:     7charge 0 multiplicity 1
 C         1.322324         0.324075        -0.432204
 C        -0.098361         0.228738        -0.232130
 C        -1.317658         0.059194        -0.117903
 C        -2.757835        -0.045228         0.023199
 C        -3.149983        -1.523500         0.248546
 C        -3.520938         0.534382        -1.203071
 O        -3.283103         1.964594        -1.280784
 C        -2.608680         2.474898        -2.430241
 O        -2.329954         1.775815        -3.389170
 H         1.501448         1.272516         0.312950
 H         1.927659        -0.552424        -0.160223
 H         1.448150         0.425721        -1.520408
 H        -3.083974         0.567093         0.910058
 H        -2.482908        -1.934043         1.030172
 H        -4.222414        -1.721948         0.400664
 H        -2.855592        -2.031406        -0.688014
 H        -3.145187         0.006204        -2.112975
 H        -4.574406         0.179062        -1.136358
 H        -2.330615         3.531122        -2.230402
