19
Iteration:  3420
 C         1.196823        -0.156323         1.106747
 C        -0.135421        -0.011794         0.528518
 C        -1.300044        -0.135633         0.191905
 C        -2.591490        -0.347575        -0.500224
 C        -2.647611        -1.836157        -1.049180
 C        -2.834567         0.665810        -1.750165
 O        -2.373135         2.049180        -1.558277
 C        -3.004174         2.805340        -2.489288
 O        -4.010273         2.619420        -3.130123
 H         1.811671        -0.154779         0.237146
 H         1.510904         0.788905         1.672865
 H         1.434806        -1.122282         1.612005
 H        -3.319388         0.021871         0.183414
 H        -3.693838        -2.020298        -1.310653
 H        -2.037515        -1.879581        -1.997623
 H        -2.181896        -2.502407        -0.317773
 H        -2.485040         0.193894        -2.689854
 H        -4.002089         0.723509        -1.913958
 H        -2.334811         3.696545        -2.547424
