19
Iteration:  1858charge 0 multiplicity 1
 C         1.448670         0.123902         0.663309
 C         0.024893         0.009361         0.348055
 C        -1.164541        -0.029450         0.095015
 C        -2.584831        -0.277023        -0.367767
 C        -2.921595        -1.687061        -0.659973
 C        -3.097687         0.575925        -1.572673
 O        -2.946253         1.949198        -1.272648
 C        -3.011299         2.709945        -2.415708
 O        -3.374291         2.304056        -3.504397
 H         1.641492         0.016686         1.703179
 H         1.953155        -0.579198         0.031597
 H         1.751428         1.128273         0.220816
 H        -3.186000         0.139312         0.455748
 H        -2.464558        -1.871180        -1.645264
 H        -2.689817        -2.345703         0.152030
 H        -3.985402        -1.812787        -0.935574
 H        -2.564914         0.354408        -2.551199
 H        -4.151139         0.247118        -1.679049
 H        -2.719562         3.795299        -2.036020
