19
Iteration:  2901
 C         1.344762        -0.220714         0.832202
 C        -0.112629        -0.253725         0.585636
 C        -1.257160        -0.042176         0.183708
 C        -2.521095        -0.225212        -0.476755
 C        -2.743767        -1.759185        -0.696479
 C        -2.574237         0.580483        -1.833737
 O        -2.886357         1.906435        -1.421635
 C        -3.413216         2.849608        -2.309523
 O        -3.546876         2.794484        -3.516604
 H         1.690560         0.265044        -0.076132
 H         1.653578         0.637262         1.557518
 H         1.756503        -1.197420         0.971881
 H        -3.345614        -0.000126         0.197684
 H        -3.456749        -1.791521        -1.479479
 H        -1.782336        -2.143474        -0.964156
 H        -3.065805        -2.211109         0.201366
 H        -1.633338         0.585798        -2.372221
 H        -3.349977         0.018740        -2.431111
 H        -3.439517         3.719666        -1.651595
