19
Iteration:  2733charge 0 multiplicity 1
 C         1.198362         0.426420         0.746728
 C        -0.166707         0.102100         0.321243
 C        -1.281397        -0.242273        -0.114607
 C        -2.692300        -0.485777        -0.445164
 C        -2.960380        -1.884313        -0.988536
 C        -3.245886         0.549732        -1.513038
 O        -2.587025         1.773925        -1.270502
 C        -2.719313         2.749495        -2.218247
 O        -3.281821         2.631979        -3.290839
 H         1.174462         0.989851         1.716509
 H         1.942028        -0.337848         1.129763
 H         1.792417         0.934117        -0.024606
 H        -3.253249        -0.279034         0.474841
 H        -3.938895        -1.905753        -1.402425
 H        -2.246448        -2.036598        -1.785080
 H        -2.863961        -2.635424        -0.228979
 H        -3.115021         0.114464        -2.533043
 H        -4.318847         0.708823        -1.467786
 H        -2.070089         3.601517        -1.989655
