19
Iteration:  1514charge 0 multiplicity 1
 C         1.221933         0.009974         1.114658
 C        -0.002120         0.135391         0.345505
 C        -1.119084         0.033073        -0.089424
 C        -2.512148        -0.048431        -0.650816
 C        -3.006059        -1.429352        -0.554502
 C        -2.522687         0.253670        -2.130092
 O        -2.208853         1.690717        -2.496770
 C        -3.147425         2.646685        -2.308368
 O        -4.293076         2.473229        -2.034486
 H         1.330481         0.881710         1.822767
 H         1.286322        -1.060628         1.519956
 H         1.949180         0.071338         0.326249
 H        -3.222080         0.630188        -0.191301
 H        -3.902567        -1.478021        -1.284003
 H        -2.183781        -2.153895        -0.767316
 H        -3.420087        -1.779555         0.415000
 H        -1.764582        -0.351536        -2.612186
 H        -3.499197         0.061139        -2.567963
 H        -2.717070         3.578899        -2.517391
