19
Iteration:  1332
 C         0.994894         0.689477         0.739808
 C        -0.301352         0.314007         0.265218
 C        -1.408576        -0.017793        -0.146753
 C        -2.683962        -0.350007        -0.821779
 C        -3.147491        -1.805639        -0.604966
 C        -2.814845         0.163531        -2.260856
 O        -2.145995         1.498289        -2.632101
 C        -2.595858         2.553039        -2.056031
 O        -3.612822         2.652704        -1.357746
 H         1.543087        -0.219557         0.566441
 H         1.501426         1.510067         0.254451
 H         1.049398         0.961460         1.886707
 H        -3.434823         0.317332        -0.314255
 H        -4.246044        -1.910477        -0.422581
 H        -2.950171        -2.535683        -1.449099
 H        -2.661350        -2.085399         0.323441
 H        -2.397636        -0.453052        -3.077437
 H        -3.912739         0.329821        -2.416875
 H        -2.067976         3.338895        -2.504502
