19
Iteration:  1290
 C         0.996214         0.823095         0.567514
 C        -0.368579         0.309821         0.123589
 C        -1.500206         0.031029        -0.161706
 C        -2.737681        -0.285517        -0.763210
 C        -3.132961        -1.789453        -0.773309
 C        -2.846802         0.035123        -2.168756
 O        -2.103602         1.286315        -2.377197
 C        -2.511635         2.525428        -1.939468
 O        -3.558214         2.794784        -1.423636
 H         1.780539         0.414443        -0.042125
 H         0.967180         1.884038         0.598897
 H         0.969805         0.484052         1.632086
 H        -3.568827         0.239147        -0.207426
 H        -3.555857        -2.219223        -1.720503
 H        -2.243497        -2.464375        -0.532614
 H        -3.802658        -2.020513         0.069370
 H        -2.333941        -0.720000        -2.765117
 H        -3.893976         0.152840        -2.439195
 H        -1.713923         3.386183        -2.006791
