19
Iteration:  3823charge 0 multiplicity 1
 C         1.507813        -0.988299         0.740525
 C         0.251443        -0.347003         0.264228
 C        -0.928010         0.000069         0.120056
 C        -2.366090         0.280797        -0.194294
 C        -2.842422        -0.968565        -1.071744
 C        -2.555338         1.607995        -0.925355
 O        -3.828124         1.812840        -1.454854
 C        -3.867377         2.187359        -2.729083
 O        -2.947162         2.166244        -3.504235
 H         2.480639        -0.490602         0.668639
 H         1.371202        -1.483039         1.781897
 H         1.869674        -1.924768         0.256968
 H        -3.026786         0.325359         0.719249
 H        -3.794321        -1.311568        -0.638856
 H        -2.923788        -0.749329        -2.146631
 H        -2.132467        -1.728390        -0.684993
 H        -2.324046         2.395097        -0.155769
 H        -1.827365         1.682189        -1.765737
 H        -4.924191         2.577327        -2.788196
