19
Iteration:  1382
 C         0.978603         0.446135         0.989298
 C        -0.227499         0.187270         0.233990
 C        -1.255559         0.061836        -0.319325
 C        -2.598547        -0.104904        -0.765782
 C        -3.083384        -1.566576        -0.610673
 C        -2.716505         0.200876        -2.264485
 O        -2.254996         1.447389        -2.700749
 C        -2.857885         2.522805        -2.171480
 O        -3.701246         2.537987        -1.329052
 H         1.336228        -0.384120         1.714646
 H         1.879777         0.765290         0.349687
 H         0.764069         1.380382         1.451019
 H        -3.173433         0.547651        -0.117415
 H        -3.428168        -1.773801         0.419798
 H        -4.043258        -1.663642        -1.166722
 H        -2.292856        -2.329744        -0.892821
 H        -2.014078        -0.472100        -2.765255
 H        -3.712494        -0.004078        -2.641314
 H        -2.099296         3.423399        -2.595864
