19
Iteration:   529
 C         1.512968        -0.034022         0.086153
 C         0.046990         0.021762         0.197559
 C        -1.152617        -0.089783         0.153195
 C        -2.635380        -0.137197        -0.185676
 C        -3.145710        -1.602498         0.100053
 C        -2.996140         0.490003        -1.535690
 O        -2.713675         1.960549        -1.441127
 C        -3.008600         2.753423        -2.515658
 O        -3.537442         2.313705        -3.545471
 H         1.678129         0.458808        -1.038320
 H         2.048339         0.725105         0.699676
 H         1.842758        -1.054655        -0.088316
 H        -3.107364         0.460970         0.575047
 H        -2.779078        -1.889503         1.111351
 H        -4.246512        -1.658823         0.215528
 H        -2.643171        -2.336830        -0.533550
 H        -2.452217         0.083595        -2.464128
 H        -4.080322         0.404802        -1.770782
 H        -2.918772         3.830346        -2.162501
