19
Iteration:  2264
 C         0.832611         1.082601         0.027011
 C        -0.300085         0.242225        -0.211404
 C        -1.476667        -0.214098        -0.164462
 C        -2.866756        -0.611099        -0.336818
 C        -3.268792        -2.049994        -0.507588
 C        -3.321161         0.323003        -1.516103
 O        -3.215957         1.788540        -1.182696
 C        -2.413543         2.563359        -1.968752
 O        -1.773670         2.455240        -2.986778
 H         1.166772         1.431333         0.999254
 H         1.657463         0.533458        -0.277887
 H         0.790477         2.093772        -0.466446
 H        -3.402448        -0.265446         0.554244
 H        -3.956648        -2.530655         0.215332
 H        -3.692417        -2.115721        -1.505138
 H        -2.403887        -2.680068        -0.405478
 H        -2.779969         0.119488        -2.430840
 H        -4.366646         0.122076        -1.727067
 H        -2.584657         3.582091        -1.727903
