19
Iteration:  1657charge 0 multiplicity 1
 C         1.424667        -0.090498         0.818403
 C        -0.022422         0.005017         0.497553
 C        -1.146600        -0.215530         0.060411
 C        -2.436519        -0.153087        -0.537180
 C        -3.065608        -1.491819        -0.493116
 C        -2.487618         0.571375        -1.877605
 O        -2.341443         2.069735        -1.756573
 C        -3.256970         2.720942        -2.445136
 O        -4.248811         2.230824        -2.998709
 H         1.936547        -0.061001        -0.139206
 H         1.730183         0.865021         1.351041
 H         1.704558        -0.991355         1.378565
 H        -3.057940         0.460884         0.148276
 H        -2.708408        -2.206779        -1.263342
 H        -3.199927        -1.962102         0.482116
 H        -4.131197        -1.275354        -0.661548
 H        -1.708675         0.303360        -2.574998
 H        -3.476835         0.331262        -2.308007
 H        -2.979808         3.801138        -2.244542
