19
Iteration:  2294
 C         0.883473         1.055385         0.128608
 C        -0.261662         0.229204        -0.034671
 C        -1.353517        -0.333889        -0.315489
 C        -2.794158        -0.521181        -0.430238
 C        -3.307084        -1.882799        -0.432255
 C        -3.365292         0.304913        -1.641725
 O        -3.140554         1.669353        -1.244598
 C        -2.536030         2.584026        -1.932993
 O        -1.911477         2.466107        -2.959515
 H         0.923624         1.802233         0.995224
 H         1.776458         0.342672         0.178588
 H         1.204634         1.693743        -0.793749
 H        -3.232882        -0.031533         0.455846
 H        -3.805228        -2.210077         0.506117
 H        -3.997271        -2.063025        -1.306573
 H        -2.490268        -2.616065        -0.739539
 H        -2.868629         0.068392        -2.554955
 H        -4.489025         0.235361        -1.702434
 H        -2.557570         3.600448        -1.491239
