19
Iteration:  1482
 C         1.154082         0.089089         1.184910
 C         0.000171         0.008360         0.292524
 C        -1.155786         0.199994        -0.109620
 C        -2.544367        -0.059888        -0.753291
 C        -2.992946        -1.528078        -0.496849
 C        -2.630760         0.307060        -2.198335
 O        -2.216342         1.673273        -2.669999
 C        -3.083577         2.630650        -2.345044
 O        -4.138684         2.447589        -1.755196
 H         0.941622         0.614585         2.149388
 H         1.672452        -0.898991         1.361911
 H         1.797286         0.700948         0.574259
 H        -3.229070         0.619188        -0.289392
 H        -3.048922        -2.148597        -1.429751
 H        -2.324147        -2.165147         0.050881
 H        -3.973110        -1.626314        -0.031368
 H        -2.060308        -0.306670        -2.888081
 H        -3.700357         0.224571        -2.442690
 H        -2.577439         3.519721        -2.775696
