19
Iteration:  1098charge 0 multiplicity 1
 C         1.045997         0.554599         0.814908
 C        -0.177898         0.303853         0.066952
 C        -1.299430        -0.032271        -0.200626
 C        -2.717188        -0.118942        -0.728337
 C        -3.166209        -1.514013        -0.470295
 C        -2.767970         0.120726        -2.193321
 O        -2.238500         1.411089        -2.774693
 C        -2.659373         2.454967        -2.020299
 O        -3.701256         2.537603        -1.376085
 H         0.928383         0.968245         1.809206
 H         1.661464        -0.377036         0.787843
 H         1.571844         1.207050         0.243140
 H        -3.255912         0.744588        -0.308460
 H        -3.842721        -1.720195         0.373911
 H        -3.815762        -1.866994        -1.320003
 H        -2.301109        -2.224341        -0.551099
 H        -2.176823        -0.538558        -2.870434
 H        -3.866758         0.146995        -2.477171
 H        -2.170701         3.475890        -2.125252
