19
Iteration:   218charge 0 multiplicity 1
 C         1.052496         0.486671        -0.917917
 C        -0.337489         0.452561        -0.474215
 C        -1.471543         0.140620        -0.199943
 C        -2.919380        -0.106717         0.038153
 C        -3.274485        -1.517592         0.259256
 C        -3.474774         0.402821        -1.246004
 O        -3.215470         1.810003        -1.203864
 C        -2.484443         2.391588        -2.198993
 O        -1.735427         1.766471        -2.928348
 H         1.258051        -0.371940        -1.603666
 H         1.340391         1.249224        -1.616116
 H         1.757706         0.625352        -0.088862
 H        -3.310675         0.467048         0.964752
 H        -2.502126        -1.929129         0.868932
 H        -4.107368        -1.513398         0.940145
 H        -3.524756        -2.236378        -0.495288
 H        -2.850279        -0.047772        -1.977432
 H        -4.498729         0.222082        -1.539731
 H        -2.614246         3.526853        -2.082741
