19
Iteration:   192
 C         1.010763         0.549463        -1.013653
 C        -0.368169         0.362195        -0.570159
 C        -1.393080         0.059440        -0.003039
 C        -2.897184        -0.114213         0.044343
 C        -3.253401        -1.688889         0.389699
 C        -3.505901         0.517621        -1.275289
 O        -3.383154         1.937320        -1.349218
 C        -2.368744         2.438338        -2.210892
 O        -1.676450         1.737966        -2.883702
 H         1.333499        -0.028949        -1.794914
 H         1.425052         1.641587        -1.238960
 H         1.690077         0.289132        -0.067966
 H        -3.306318         0.471445         0.803823
 H        -2.507721        -2.072311         1.151987
 H        -4.287206        -1.801127         0.844011
 H        -3.252568        -2.409163        -0.472770
 H        -3.104358         0.026231        -2.234041
 H        -4.594625         0.287825        -1.213384
 H        -2.317904         3.520188        -2.008837
