19
Iteration:  4030
 C         1.430051        -0.488784         0.987431
 C         0.194877        -0.326152         0.275696
 C        -0.992083        -0.409484        -0.049599
 C        -2.328330         0.040499        -0.480448
 C        -3.175802        -0.827812        -1.299851
 C        -2.176355         1.486155        -0.993744
 O        -3.450019         2.171734        -1.211829
 C        -3.821102         2.196305        -2.529182
 O        -3.214962         1.757335        -3.471177
 H         1.766050        -1.579245         0.894442
 H         2.218770         0.165679         0.587828
 H         1.215239        -0.341299         2.011258
 H        -2.953778         0.172280         0.380441
 H        -4.106446        -1.369911        -0.934924
 H        -3.753953        -0.393271        -2.057496
 H        -2.630009        -1.690023        -1.723734
 H        -1.696872         2.025823        -0.179563
 H        -1.523328         1.482358        -1.987087
 H        -4.698684         2.824760        -2.623238
