19
Iteration:  3600charge 0 multiplicity 1
 C         1.460034        -0.445251         1.080876
 C         0.079025        -0.383376         0.563590
 C        -1.000696        -0.252592         0.061399
 C        -2.412169        -0.100963        -0.524577
 C        -2.916706        -1.524248        -0.896910
 C        -2.334502         0.997928        -1.690623
 O        -3.221430         2.067376        -1.352863
 C        -3.701587         2.748076        -2.378068
 O        -3.584039         2.485975        -3.573923
 H         1.833992        -1.240530         1.853592
 H         2.204203        -0.605341         0.312156
 H         1.785074         0.539063         1.371880
 H        -3.012365         0.393092         0.261177
 H        -4.006989        -1.544119        -0.766252
 H        -2.618346        -1.784706        -1.885419
 H        -2.476241        -2.281589        -0.300043
 H        -1.291100         1.424737        -1.605671
 H        -2.426236         0.514080        -2.690824
 H        -4.427127         3.493903        -1.952068
