19
Iteration:   698
 C         1.541545        -0.196915         0.654188
 C         0.120379        -0.164123         0.203565
 C        -1.050581        -0.020652        -0.101397
 C        -2.526706        -0.021413        -0.204420
 C        -3.071267        -1.503706        -0.077201
 C        -2.789398         0.537279        -1.600104
 O        -2.398639         1.948284        -1.898596
 C        -3.157525         2.692148        -2.661500
 O        -4.275234         2.429092        -3.101721
 H         1.521355        -1.080594         1.483985
 H         2.215229        -0.528274        -0.171423
 H         1.951036         0.718258         1.105135
 H        -2.893528         0.647974         0.576807
 H        -2.429342        -2.034890         0.642569
 H        -4.100782        -1.650871         0.150353
 H        -2.645874        -1.953919        -0.973911
 H        -2.223471        -0.014656        -2.309749
 H        -3.833389         0.545069        -1.871990
 H        -2.810783         3.681020        -2.835623
