19
Iteration:  1509
 C         1.217563         0.031238         1.139780
 C         0.007322         0.099406         0.309551
 C        -1.164226         0.062712        -0.100774
 C        -2.513310        -0.026579        -0.616724
 C        -2.983051        -1.454830        -0.554514
 C        -2.554382         0.246515        -2.124987
 O        -2.199726         1.702996        -2.563524
 C        -3.112093         2.639582        -2.291014
 O        -4.305937         2.467946        -1.995425
 H         1.274587         0.801965         1.909997
 H         1.265361        -0.984632         1.465897
 H         2.060545         0.149292         0.399171
 H        -3.159936         0.718501        -0.065723
 H        -3.677073        -1.512417        -1.378474
 H        -2.316235        -2.321478        -0.673262
 H        -3.565900        -1.817024         0.319367
 H        -1.724371        -0.288525        -2.629131
 H        -3.517125        -0.041413        -2.580620
 H        -2.550151         3.619658        -2.593211
