19
Iteration:  3163charge 0 multiplicity 1
 C         1.109413         0.242169         0.708812
 C        -0.234752        -0.163681         0.424012
 C        -1.429471        -0.107113         0.158980
 C        -2.712355        -0.351263        -0.462114
 C        -2.690045        -1.850255        -0.865337
 C        -2.806801         0.467360        -1.793873
 O        -2.465636         1.827321        -1.519936
 C        -2.900410         2.890807        -2.196690
 O        -3.626626         2.729594        -3.148094
 H         1.250859         0.082016         1.756790
 H         1.748057        -0.639146         0.397869
 H         1.367580         1.222970         0.423368
 H        -3.423363        -0.248332         0.331991
 H        -3.694591        -2.114905        -1.291312
 H        -2.037553        -2.161312        -1.711415
 H        -2.514789        -2.636238        -0.123308
 H        -1.984185         0.027640        -2.404952
 H        -3.823031         0.410909        -2.305948
 H        -2.661566         3.854429        -1.699427
