19
Iteration:  3662charge 0 multiplicity 1
 C         1.477751        -0.751730         0.848071
 C         0.125047        -0.318638         0.611342
 C        -1.011887        -0.105169         0.226566
 C        -2.365590         0.046763        -0.380929
 C        -2.746673        -1.310593        -1.028033
 C        -2.262286         1.100049        -1.401444
 O        -3.495454         2.039535        -1.308311
 C        -3.892717         2.507928        -2.513205
 O        -3.384996         2.423526        -3.622850
 H         1.723006        -0.941513         1.841279
 H         1.540067        -1.588128         0.140638
 H         2.146454         0.100625         0.492344
 H        -3.135327         0.362656         0.317769
 H        -3.332646        -1.055119        -1.969318
 H        -1.882982        -1.889829        -1.384315
 H        -3.535787        -1.838820        -0.442153
 H        -1.434385         1.746009        -1.211485
 H        -2.324489         0.810168        -2.494488
 H        -4.799165         3.098129        -2.370166
