19
Iteration:  4483
 C         1.421912        -0.419845         1.146980
 C         0.161252        -0.327119         0.397416
 C        -0.907825        -0.264388        -0.173998
 C        -2.323726        -0.149279        -0.451046
 C        -2.969222        -1.353914        -1.033339
 C        -2.316745         1.271874        -1.253664
 O        -3.754172         1.621125        -1.572698
 C        -3.905351         2.423555        -2.582243
 O        -2.973454         2.774398        -3.280524
 H         1.924668        -1.265175         0.754264
 H         2.212277         0.304012         0.790317
 H         1.207050        -0.465824         2.225876
 H        -2.708647         0.026889         0.582999
 H        -3.592737        -0.932302        -1.859446
 H        -2.186581        -2.006540        -1.359570
 H        -3.672391        -1.776252        -0.279311
 H        -2.003819         1.983179        -0.480160
 H        -1.704852         1.078977        -2.193669
 H        -4.989600         2.783012        -2.777394
