19
Iteration:  3263charge 0 multiplicity 1
 C         1.010803         0.614553         0.866477
 C        -0.105777        -0.132597         0.290390
 C        -1.221891        -0.293484        -0.114738
 C        -2.621508        -0.438078        -0.604158
 C        -3.191420        -1.814475        -0.855516
 C        -2.710828         0.366295        -1.940763
 O        -2.253490         1.769291        -1.435892
 C        -2.876909         2.831092        -2.059178
 O        -3.626495         2.641594        -2.992429
 H         0.506945         1.473943         1.276327
 H         1.311544        -0.130683         1.791702
 H         1.847752         0.856387         0.233903
 H        -3.228839         0.159300         0.064473
 H        -4.298968        -1.718910        -1.109699
 H        -2.849441        -2.459975        -1.663342
 H        -3.354501        -2.436840         0.083211
 H        -1.863639         0.179067        -2.723195
 H        -3.742542         0.364141        -2.263020
 H        -2.837606         3.766652        -1.459231
