19
Iteration:   402
 C         1.415641         0.172484        -0.156302
 C        -0.024398        -0.011690        -0.022309
 C        -1.223082         0.141488        -0.150388
 C        -2.619443        -0.117561        -0.092513
 C        -3.093767        -1.576674         0.003375
 C        -3.521595         0.610782        -1.190249
 O        -3.034167         1.984280        -1.228160
 C        -2.699453         2.526181        -2.455981
 O        -2.869194         1.996224        -3.514408
 H         1.654326         0.877902         0.603208
 H         2.043380        -0.794001        -0.008300
 H         1.656913         0.633116        -1.230059
 H        -2.937236         0.349886         0.839461
 H        -2.272442        -2.154745         0.443769
 H        -4.030128        -1.606643         0.639968
 H        -3.426118        -1.988154        -0.958958
 H        -3.536145         0.212775        -2.204452
 H        -4.602707         0.692633        -0.826588
 H        -2.109353         3.372781        -2.286538
