19
Iteration:  1698charge 0 multiplicity 1
 C         1.452054        -0.134767         0.869892
 C         0.107722        -0.198415         0.374031
 C        -1.062111        -0.034576         0.101481
 C        -2.480154        -0.027075        -0.363121
 C        -2.998228        -1.551753        -0.531466
 C        -2.595604         0.464727        -1.778243
 O        -2.495150         1.936376        -1.731239
 C        -3.358094         2.771175        -2.397453
 O        -4.140273         2.423857        -3.289308
 H         2.370503        -0.479293         0.319092
 H         1.755039         0.954534         0.962443
 H         1.500559        -0.297152         1.886139
 H        -3.210726         0.512340         0.345275
 H        -3.680117        -1.836763        -1.368498
 H        -2.193319        -2.251156        -0.528187
 H        -3.694672        -1.786568         0.317863
 H        -1.825485         0.047798        -2.392647
 H        -3.530378         0.274108        -2.278240
 H        -3.341047         3.860222        -1.884631
