19
Iteration:  3059
 C         1.346305        -0.153559         1.104785
 C         0.133548        -0.307445         0.346944
 C        -1.058596        -0.171980        -0.052565
 C        -2.522638        -0.211823        -0.531557
 C        -2.759455        -1.700994        -0.804146
 C        -2.912686         0.627616        -1.761690
 O        -3.005755         2.022560        -1.329810
 C        -3.303303         2.919199        -2.305600
 O        -3.512858         2.611621        -3.462093
 H         1.643605        -1.167598         1.559484
 H         2.266677         0.205442         0.666109
 H         1.306949         0.543956         2.014180
 H        -3.073306         0.000575         0.403423
 H        -3.817142        -1.828226        -1.131700
 H        -2.115451        -1.935209        -1.679839
 H        -2.571170        -2.469100         0.004787
 H        -2.252677         0.445352        -2.639358
 H        -3.857002         0.398212        -2.233505
 H        -3.537313         3.891624        -1.890331
