19
Iteration:  2473charge 0 multiplicity 1
 C         1.250880         0.076604         0.652548
 C        -0.095948         0.210279         0.034081
 C        -1.299784         0.177765        -0.157024
 C        -2.646318        -0.244216        -0.360458
 C        -2.603147        -1.741340        -0.790143
 C        -3.450126         0.463905        -1.513311
 O        -3.548740         1.909039        -1.338358
 C        -2.891647         2.673580        -2.143041
 O        -2.406436         2.304656        -3.186388
 H         1.881679        -0.030886        -0.262503
 H         1.495432         0.919755         1.208974
 H         1.180573        -0.904234         1.199645
 H        -3.166389        -0.263687         0.586917
 H        -2.914742        -2.457126        -0.000886
 H        -3.332213        -1.900549        -1.649715
 H        -1.593476        -2.145751        -0.924771
 H        -2.977668         0.345160        -2.515642
 H        -4.466879         0.169478        -1.682269
 H        -3.200908         3.692307        -1.867895
