19
Iteration:  2238charge 0 multiplicity 1
 C         0.821523         1.041954        -0.117713
 C        -0.436978         0.361021        -0.146693
 C        -1.489467        -0.233946        -0.023346
 C        -2.908735        -0.511353        -0.323818
 C        -3.130172        -2.028874        -0.630312
 C        -3.308742         0.390154        -1.546591
 O        -3.243321         1.828987        -1.235733
 C        -2.357515         2.602077        -1.869261
 O        -1.797410         2.208633        -2.881589
 H         1.494939         0.995671         0.834241
 H         1.572313         0.555562        -0.857982
 H         0.739603         2.122901        -0.275630
 H        -3.578290        -0.177500         0.478500
 H        -3.973754        -2.584847        -0.178822
 H        -3.181825        -2.217381        -1.744599
 H        -2.193732        -2.505298        -0.194916
 H        -2.784510         0.165441        -2.470748
 H        -4.388165         0.147431        -1.706671
 H        -2.518661         3.664283        -1.726002
