19
Iteration:  2795charge 0 multiplicity 1
 C         1.088531         0.218174         1.128661
 C         0.052686        -0.137842         0.214424
 C        -1.088877        -0.220547        -0.306150
 C        -2.481221        -0.354167        -0.503780
 C        -2.911099        -1.749551        -0.945040
 C        -3.248816         0.623590        -1.469657
 O        -2.670818         1.972078        -1.313496
 C        -2.869446         2.836308        -2.323585
 O        -3.455959         2.448760        -3.313066
 H         1.156215         1.281376         1.120656
 H         1.096277        -0.368674         1.957280
 H         2.012924         0.093720         0.481576
 H        -2.995458        -0.298973         0.476001
 H        -4.067783        -1.937458        -1.054447
 H        -2.543627        -1.971476        -2.003109
 H        -2.581414        -2.607633        -0.373353
 H        -3.162232         0.377383        -2.554504
 H        -4.252229         0.544802        -1.108243
 H        -2.344253         3.797048        -2.094443
