19
Iteration:   485
 C         1.565025         0.122157        -0.005649
 C         0.054554        -0.089723         0.022886
 C        -1.164041        -0.107479        -0.013969
 C        -2.707316        -0.001337        -0.016662
 C        -3.179110        -1.492966        -0.039355
 C        -3.148919         0.508738        -1.399891
 O        -2.850638         1.974119        -1.338242
 C        -2.940465         2.638992        -2.466086
 O        -3.305597         2.143053        -3.510429
 H         1.995704         1.130872        -0.518024
 H         1.926411        -0.018006         1.048996
 H         2.045624        -0.625382        -0.594280
 H        -3.106033         0.665252         0.762320
 H        -3.437299        -1.898707         0.948530
 H        -4.119338        -1.676522        -0.569099
 H        -2.322213        -2.097899        -0.333477
 H        -2.613112        -0.093889        -2.196996
 H        -4.221048         0.304867        -1.405255
 H        -2.623516         3.721145        -2.182465
