19
Iteration:   356charge 0 multiplicity 1
 C         1.289215         0.226136        -0.249254
 C        -0.106986         0.271463        -0.321405
 C        -1.230097        -0.069797        -0.146309
 C        -2.641082        -0.089715        -0.023798
 C        -3.130933        -1.558154         0.044726
 C        -3.468034         0.607764        -1.112340
 O        -3.185317         2.016063        -1.234955
 C        -2.588510         2.449549        -2.344872
 O        -2.600551         1.899049        -3.441609
 H         1.638257         0.190444         0.868080
 H         1.614083        -0.709036        -0.829317
 H         1.689753         1.159875        -0.812526
 H        -2.877989         0.439916         0.964741
 H        -2.543323        -2.174245         0.741187
 H        -4.224972        -1.459076         0.288893
 H        -3.237895        -2.008258        -0.954142
 H        -3.278881         0.099240        -2.127803
 H        -4.542743         0.472608        -0.878995
 H        -2.346089         3.522983        -2.237139
