19
Iteration:  3334
 C         1.240657         0.310020         1.053715
 C        -0.166183         0.046131         0.480569
 C        -1.230459        -0.176610        -0.058081
 C        -2.609947        -0.449066        -0.606978
 C        -2.956013        -1.954033        -0.842536
 C        -2.859723         0.300134        -1.896578
 O        -2.360048         1.698889        -1.658457
 C        -2.948966         2.788171        -2.204864
 O        -3.777688         3.037593        -3.066640
 H         1.780269         1.295755         0.844982
 H         1.136186         0.315514         2.171299
 H         1.986588        -0.533740         0.748617
 H        -3.394391        -0.102722         0.171824
 H        -3.982370        -2.052791        -1.145054
 H        -2.408910        -2.468162        -1.645248
 H        -2.993625        -2.494582         0.090355
 H        -2.314268        -0.124048        -2.694452
 H        -3.949005         0.546424        -2.036730
 H        -2.505470         3.703280        -1.647637
