19
Iteration:  3419charge 0 multiplicity 1
 C         1.196198        -0.150608         1.097126
 C        -0.130241        -0.013735         0.526183
 C        -1.309277        -0.134907         0.195093
 C        -2.588601        -0.358356        -0.510117
 C        -2.645903        -1.835620        -1.040699
 C        -2.841234         0.669450        -1.743152
 O        -2.368966         2.054257        -1.557265
 C        -2.999984         2.811134        -2.494683
 O        -4.007889         2.617408        -3.123199
 H         1.793967        -0.149073         0.249187
 H         1.493302         0.788132         1.720029
 H         1.383779        -1.107656         1.604871
 H        -3.313293        -0.018391         0.190933
 H        -3.705711        -2.038668        -1.319043
 H        -2.026765        -1.920387        -1.993059
 H        -2.176374        -2.523852        -0.319164
 H        -2.490993         0.195782        -2.708594
 H        -3.983797         0.746074        -1.938656
 H        -2.344814         3.680800        -2.582326
