19
Iteration:  1802
 C         1.445346        -0.089477         0.875801
 C         0.093133        -0.039998         0.248868
 C        -1.105577         0.022216        -0.021715
 C        -2.548617        -0.185291        -0.370273
 C        -2.786686        -1.737510        -0.578377
 C        -3.105373         0.577138        -1.496950
 O        -2.748889         2.022958        -1.445396
 C        -3.203099         2.747063        -2.479159
 O        -3.667205         2.390475        -3.533618
 H         1.565846        -0.864070         1.620127
 H         2.256078        -0.092827         0.190765
 H         1.614603         0.798639         1.596749
 H        -3.091247         0.154757         0.533735
 H        -2.276977        -2.316944         0.186225
 H        -3.818160        -2.124592        -0.482129
 H        -2.530442        -2.050845        -1.600646
 H        -2.543885         0.314130        -2.446411
 H        -4.193413         0.442761        -1.671315
 H        -3.019226         3.835110        -2.052804
