19
Iteration:  2599
 C         1.228552         0.561755         0.354614
 C        -0.200696         0.048834         0.273195
 C        -1.333251        -0.289194        -0.002188
 C        -2.727447        -0.491673        -0.449942
 C        -3.084540        -1.945857        -0.731216
 C        -2.862410         0.409676        -1.642520
 O        -2.996660         1.832537        -1.173181
 C        -3.053728         2.790287        -2.121694
 O        -2.694131         2.653147        -3.272771
 H         1.651215        -0.321086         0.854772
 H         1.615778         0.961278        -0.654319
 H         1.205726         1.403727         1.093212
 H        -3.377552        -0.041683         0.325965
 H        -3.860016        -2.004524        -1.517703
 H        -2.243875        -2.579214        -0.883351
 H        -3.472093        -2.384507         0.176271
 H        -2.057004         0.397247        -2.398245
 H        -3.868376         0.303838        -2.066054
 H        -3.340878         3.720288        -1.584129
