19
Iteration:  4293charge 0 multiplicity 1
 C         1.341942        -0.747337         1.135982
 C         0.112570        -0.450234         0.599082
 C        -0.950680        -0.163471         0.076498
 C        -2.256228         0.053245        -0.529713
 C        -2.683476        -1.209482        -1.326404
 C        -2.211247         1.424471        -1.251286
 O        -3.542049         2.057031        -1.251196
 C        -3.987836         2.426151        -2.548359
 O        -3.390179         2.246247        -3.622736
 H         1.925546         0.180066         1.455725
 H         1.346513        -1.252964         2.126728
 H         1.752253        -1.488621         0.551948
 H        -2.993307         0.154868         0.311379
 H        -3.715401        -1.239299        -1.594231
 H        -1.946189        -1.207538        -2.207334
 H        -2.495461        -2.114727        -0.756901
 H        -1.580740         2.130318        -0.748904
 H        -1.995361         1.308934        -2.302392
 H        -5.004559         2.906471        -2.362844
