19
Iteration:  1631
 C         1.461496        -0.068044         0.805785
 C         0.026631         0.033820         0.513704
 C        -1.106855        -0.133895         0.033038
 C        -2.515683        -0.043456        -0.491636
 C        -3.229336        -1.555469        -0.558221
 C        -2.391637         0.509374        -1.902744
 O        -2.238955         2.026758        -1.840211
 C        -3.266776         2.663155        -2.433397
 O        -4.326869         2.248341        -2.851666
 H         2.121624         0.403618         0.015679
 H         1.601296         0.550333         1.716511
 H         1.735093        -1.057246         1.112357
 H        -3.170333         0.655197         0.132760
 H        -2.534722        -2.414957        -0.500240
 H        -4.073153        -1.734558         0.097519
 H        -3.821868        -1.723137        -1.510464
 H        -1.567692         0.179977        -2.537975
 H        -3.324694         0.287617        -2.393513
 H        -2.874398         3.818334        -2.293921
