19
Iteration:  2419charge 0 multiplicity 1
 C         1.219357         0.204685         0.324768
 C        -0.256880         0.235259         0.324484
 C        -1.360545         0.007202        -0.027771
 C        -2.717941        -0.295864        -0.364473
 C        -2.673886        -1.794521        -0.770034
 C        -3.388982         0.451224        -1.537354
 O        -3.539595         1.947051        -1.344880
 C        -2.910662         2.690481        -2.229978
 O        -2.199227         2.299381        -3.119015
 H         1.548382         1.081112        -0.284748
 H         1.652990         0.596684         1.274859
 H         1.645518        -0.901253         0.262656
 H        -3.306815        -0.177141         0.548198
 H        -1.851228        -2.191402        -0.138666
 H        -3.555069        -2.467168        -0.670617
 H        -2.278695        -1.788475        -1.831265
 H        -2.842918         0.306097        -2.515430
 H        -4.404079         0.080035        -1.501221
 H        -2.925208         3.773752        -1.981965
