19
Iteration:  3236
 C         1.091205         0.587123         0.838270
 C        -0.181883         0.047311         0.343732
 C        -1.227094        -0.493826        -0.042767
 C        -2.657196        -0.437471        -0.522584
 C        -3.216717        -1.750659        -1.037906
 C        -2.694001         0.554405        -1.744368
 O        -2.191936         1.738555        -1.426582
 C        -2.927213         2.710756        -2.098126
 O        -3.658893         2.575940        -3.066771
 H         1.096815         1.418272         1.675292
 H         1.486021        -0.200924         1.368071
 H         1.726963         1.038200        -0.016914
 H        -3.281532         0.073114         0.253952
 H        -4.099026        -1.591620        -1.661041
 H        -2.617973        -2.435391        -1.676390
 H        -3.579236        -2.384389        -0.253079
 H        -2.089397         0.317846        -2.558621
 H        -3.771498         0.642249        -2.012551
 H        -2.706796         3.700841        -1.687244
