19
Iteration:   994
 C         1.326258         0.096765         0.957971
 C         0.004603         0.016244         0.276852
 C        -1.158803         0.172419        -0.028791
 C        -2.567888        -0.084833        -0.625702
 C        -3.040437        -1.521137        -0.438388
 C        -2.748704         0.239207        -2.136629
 O        -2.346020         1.492990        -2.692716
 C        -3.011019         2.626454        -2.347801
 O        -4.065300         2.705753        -1.790843
 H         1.815540        -0.908546         1.026054
 H         1.954611         0.603090         0.222507
 H         1.333540         0.683637         1.938787
 H        -3.214805         0.630331        -0.073024
 H        -3.798383        -1.496531         0.359128
 H        -3.500038        -1.931788        -1.361124
 H        -2.243505        -2.153014         0.017994
 H        -2.233857        -0.519981        -2.735282
 H        -3.787219         0.094188        -2.344818
 H        -2.615827         3.511912        -2.835959
