19
Iteration:  4101charge 0 multiplicity 1
 C         1.569469        -0.914312         0.969694
 C         0.117755        -0.560223         0.700879
 C        -0.971273        -0.145297         0.245944
 C        -2.262647         0.266239        -0.394346
 C        -2.764318        -0.903875        -1.333954
 C        -2.195724         1.638263        -1.165916
 O        -3.566332         2.088660        -1.327355
 C        -4.036210         2.187053        -2.611830
 O        -3.481146         2.001698        -3.690982
 H         1.639110        -1.814774         1.534857
 H         2.059096        -1.148323         0.025964
 H         2.177101        -0.137555         1.608073
 H        -3.011432         0.446955         0.399967
 H        -2.110857        -1.759412        -1.258314
 H        -3.723833        -1.418332        -1.039156
 H        -2.601477        -0.717923        -2.409703
 H        -1.649330         2.416891        -0.558185
 H        -1.711674         1.473349        -2.069927
 H        -5.040395         2.622014        -2.502907
