19
Iteration:  1799charge 0 multiplicity 1
 C         1.438094        -0.093451         0.899325
 C         0.104720        -0.035311         0.244695
 C        -1.092181         0.026952        -0.023720
 C        -2.549551        -0.197539        -0.372786
 C        -2.792370        -1.711014        -0.573542
 C        -3.117073         0.585933        -1.521427
 O        -2.755992         1.991786        -1.461296
 C        -3.188313         2.765536        -2.463287
 O        -3.680923         2.384294        -3.518836
 H         1.714615        -0.949155         1.553566
 H         2.322482        -0.112126         0.229560
 H         1.572540         0.763967         1.539960
 H        -3.110251         0.156767         0.552042
 H        -2.361565        -2.216773         0.256975
 H        -3.809964        -2.133741        -0.568520
 H        -2.415344        -2.015164        -1.536155
 H        -2.544425         0.296615        -2.380223
 H        -4.168621         0.478731        -1.767194
 H        -3.074974         3.860249        -2.119779
