19
Iteration:   989
 C         1.314176         0.094904         0.956531
 C         0.052938         0.018292         0.254335
 C        -1.150019         0.162432        -0.017882
 C        -2.539944        -0.025331        -0.626327
 C        -3.085756        -1.522677        -0.459638
 C        -2.742218         0.219408        -2.132656
 O        -2.335208         1.465597        -2.658310
 C        -3.006910         2.664220        -2.337109
 O        -4.108884         2.691007        -1.806003
 H         1.728265        -0.908541         0.971601
 H         2.037272         0.664292         0.295904
 H         1.363178         0.565007         2.015012
 H        -3.307956         0.682605        -0.243374
 H        -3.781890        -1.473615         0.380955
 H        -3.450306        -1.966884        -1.381684
 H        -2.222056        -2.075843        -0.108434
 H        -2.241492        -0.633670        -2.638171
 H        -3.868588         0.061899        -2.222175
 H        -2.482015         3.478918        -2.919466
