19
Iteration:  1421charge 0 multiplicity 1
 C         1.124613         0.280054         1.142542
 C        -0.084818         0.247859         0.337467
 C        -1.165051         0.072515        -0.248840
 C        -2.509337        -0.144594        -0.864509
 C        -3.139263        -1.589116        -0.505935
 C        -2.684760         0.176938        -2.378758
 O        -2.350392         1.535324        -2.767648
 C        -2.947779         2.548382        -2.207629
 O        -3.876848         2.592050        -1.444441
 H         0.977357        -0.131140         2.140681
 H         2.043518        -0.143614         0.785683
 H         1.408330         1.379075         1.462541
 H        -3.271963         0.564344        -0.440243
 H        -2.347975        -2.191129        -0.076247
 H        -4.011672        -1.274541         0.097906
 H        -3.434036        -2.105269        -1.447905
 H        -1.952432        -0.395819        -2.975470
 H        -3.724082        -0.047761        -2.718386
 H        -2.391746         3.432916        -2.357488
