19
Iteration:  3747
 C         1.499037        -0.915155         0.918808
 C         0.288244        -0.548261         0.257189
 C        -0.875237        -0.224001         0.110814
 C        -2.222602         0.262089        -0.269293
 C        -2.984923        -0.826702        -1.003628
 C        -2.331204         1.603521        -0.966570
 O        -3.686967         1.743618        -1.439949
 C        -3.923063         2.043117        -2.731610
 O        -3.257970         2.481996        -3.641056
 H         1.582311        -0.174840         1.754462
 H         1.384938        -1.897016         1.573816
 H         2.574141        -0.967891         0.518034
 H        -2.873100         0.448650         0.658476
 H        -4.074830        -0.710658        -0.865651
 H        -2.926225        -0.673363        -2.111361
 H        -2.512558        -1.794123        -0.718217
 H        -1.968739         2.328915        -0.300817
 H        -1.687663         1.639598        -1.844435
 H        -5.018583         1.680997        -2.809700
