19
Iteration:  1834charge 0 multiplicity 1
 C         1.480128         0.019139         0.740047
 C        -0.001115         0.045555         0.408219
 C        -1.133714        -0.122656        -0.054119
 C        -2.566970        -0.260524        -0.321485
 C        -2.833832        -1.806344        -0.621014
 C        -3.114967         0.610653        -1.455552
 O        -2.872052         2.081048        -1.387666
 C        -3.101629         2.776122        -2.474859
 O        -3.503884         2.340361        -3.545041
 H         1.521074        -0.458777         1.694718
 H         1.992278        -0.412162        -0.089076
 H         1.795782         1.110900         0.744780
 H        -3.068480        -0.018327         0.664508
 H        -1.918961        -2.217509        -0.979921
 H        -3.387433        -2.189859         0.244365
 H        -3.420235        -1.929195        -1.530537
 H        -2.464418         0.256075        -2.304116
 H        -4.136794         0.287666        -1.647941
 H        -2.857474         3.924337        -2.170400
