19
Iteration:  3683
 C         1.545310        -0.806595         0.784165
 C         0.135215        -0.388064         0.756365
 C        -0.971522        -0.164057         0.278741
 C        -2.263091         0.102707        -0.423101
 C        -2.850180        -1.261844        -1.058449
 C        -2.248462         1.392379        -1.393899
 O        -3.595757         1.945119        -1.412527
 C        -4.001053         2.470857        -2.563293
 O        -3.314237         2.365315        -3.532990
 H         1.915021        -0.734982         1.768954
 H         1.628091        -1.910363         0.390790
 H         2.361498        -0.152216         0.275051
 H        -2.906862         0.393941         0.428516
 H        -3.482632        -1.088214        -2.002306
 H        -2.081784        -1.936395        -1.467411
 H        -3.622817        -1.698454        -0.359876
 H        -1.629381         2.199219        -1.151229
 H        -2.042361         1.032648        -2.442325
 H        -4.974067         3.015283        -2.508589
