19
Iteration:  3377charge 0 multiplicity 1
 C         1.119151         0.097561         1.033095
 C        -0.185723        -0.089877         0.462479
 C        -1.300084        -0.094763        -0.026374
 C        -2.647766        -0.356210        -0.531981
 C        -2.675548        -1.819481        -0.918667
 C        -2.977113         0.601931        -1.795597
 O        -2.236663         1.805251        -1.571707
 C        -2.934407         2.796267        -2.346636
 O        -3.915704         2.710081        -3.049727
 H         1.956570         0.592128         0.522407
 H         1.126164         0.602032         2.037724
 H         1.577611        -0.937547         1.076657
 H        -3.454090        -0.212546         0.211407
 H        -3.434185        -1.969577        -1.672503
 H        -1.710801        -1.827925        -1.459370
 H        -2.659091        -2.496486        -0.090076
 H        -2.565867         0.159977        -2.699236
 H        -4.130471         0.727935        -1.847741
 H        -2.274258         3.731891        -2.283751
