19
Iteration:  1443charge 0 multiplicity 1
 C         1.096874         0.186753         1.173941
 C        -0.249690         0.202091         0.432156
 C        -1.100615         0.029431        -0.406328
 C        -2.426758        -0.116997        -0.827362
 C        -3.051728        -1.502856        -0.483195
 C        -2.633544         0.199345        -2.301135
 O        -2.267876         1.558857        -2.711293
 C        -3.019404         2.582365        -2.251109
 O        -3.980960         2.569469        -1.519692
 H         1.225520         0.115709         2.268643
 H         1.665014        -0.507190         0.583998
 H         1.563447         1.224845         0.906701
 H        -3.028881         0.663351        -0.270946
 H        -2.204071        -2.151556        -0.724166
 H        -3.392836        -1.438586         0.595007
 H        -3.916957        -1.817331        -1.102402
 H        -2.017658        -0.466472        -2.940406
 H        -3.721976         0.060223        -2.512740
 H        -2.790076         3.530832        -2.778957
