19
Iteration:  3945charge 0 multiplicity 1
 C         1.486581        -0.415110         0.616863
 C         0.070935        -0.417583         0.330893
 C        -1.146702        -0.387263         0.205934
 C        -2.503721         0.057875        -0.327434
 C        -3.052327        -0.935154        -1.327673
 C        -2.274255         1.407644        -0.859494
 O        -3.422111         2.151715        -1.297026
 C        -3.753115         2.258122        -2.551289
 O        -3.070904         1.816438        -3.480070
 H         2.006826        -0.567786        -0.267792
 H         1.816375         0.607635         1.076704
 H         1.948447        -1.080209         1.390915
 H        -3.265008         0.164198         0.482142
 H        -3.613048        -0.254510        -2.019371
 H        -2.161678        -1.398085        -1.681713
 H        -3.798789        -1.609635        -0.902544
 H        -1.946189         2.040618        -0.094882
 H        -1.462415         1.375007        -1.667119
 H        -4.796361         2.617332        -2.569983
