19
Iteration:  4554charge 0 multiplicity 1
 C         1.475951        -0.726828         0.814890
 C         0.047030        -0.316063         0.660259
 C        -1.067055        -0.087031         0.328359
 C        -2.371962         0.085521        -0.304141
 C        -2.709855        -1.171760        -0.985065
 C        -2.314993         1.226651        -1.326370
 O        -3.630601         1.254729        -1.854733
 C        -3.899409         2.367928        -2.644980
 O        -3.141941         3.091997        -3.243976
 H         1.348561        -1.848045         1.036829
 H         1.992353        -0.931905        -0.095621
 H         2.022547        -0.285490         1.619349
 H        -3.263343         0.327282         0.349068
 H        -3.755872        -1.384554        -0.964170
 H        -2.396229        -1.180233        -2.102999
 H        -2.105996        -1.971041        -0.509989
 H        -2.008791         2.178143        -0.787201
 H        -1.668183         0.963757        -2.171884
 H        -4.959699         2.282803        -2.945586
