19
Iteration:  2180charge 0 multiplicity 1
 C         0.958371         0.885506        -0.235260
 C        -0.403125         0.530908        -0.020571
 C        -1.509966         0.054867         0.012981
 C        -2.905001        -0.429850        -0.331556
 C        -2.855584        -1.915028        -0.860962
 C        -3.652460         0.441706        -1.489466
 O        -3.458900         1.848069        -1.247346
 C        -2.353216         2.454428        -1.867123
 O        -1.662670         1.929119        -2.736508
 H         1.587202         0.039243         0.244731
 H         1.211014         1.151400        -1.336304
 H         1.083383         1.904675         0.208772
 H        -3.536223        -0.455060         0.595025
 H        -3.580596        -2.070277        -1.721294
 H        -1.840493        -2.274924        -1.093909
 H        -3.142040        -2.516120         0.000653
 H        -3.252183         0.180017        -2.536049
 H        -4.703304         0.160592        -1.356694
 H        -2.417441         3.396289        -1.366730
