19
Iteration:   172
 C         1.035957         0.594802        -1.023910
 C        -0.267315         0.180427        -0.457362
 C        -1.427119         0.037551        -0.055685
 C        -2.859763        -0.097891         0.085522
 C        -3.229869        -1.540919         0.319372
 C        -3.640282         0.439376        -1.170131
 O        -3.445919         1.939953        -1.451323
 C        -2.330029         2.364631        -2.136223
 O        -1.636533         1.779773        -2.905725
 H         1.052002         0.410762        -2.018211
 H         1.126413         1.747999        -1.063011
 H         1.965101         0.291564        -0.417654
 H        -3.167874         0.423924         1.002311
 H        -2.747975        -1.907724         1.246767
 H        -4.330114        -1.718719         0.396527
 H        -2.842294        -2.144421        -0.515828
 H        -3.293648        -0.034319        -2.136033
 H        -4.725243         0.384795        -1.114912
 H        -2.278504         3.505100        -2.030737
