19
Iteration:  4279charge 0 multiplicity 1
 C         1.455206        -0.848671         1.262179
 C         0.144875        -0.510944         0.562064
 C        -0.948643        -0.176234         0.061460
 C        -2.272736         0.114842        -0.456069
 C        -2.680715        -1.086538        -1.347754
 C        -2.235813         1.479688        -1.215174
 O        -3.551454         2.053686        -1.333718
 C        -4.002388         2.300313        -2.569558
 O        -3.474909         2.302116        -3.641018
 H         1.988306         0.138759         1.491444
 H         1.279727        -1.411644         2.133931
 H         2.246445        -1.352516         0.570066
 H        -2.951198         0.227292         0.370770
 H        -3.649816        -0.845057        -1.954613
 H        -2.085460        -1.469601        -2.147798
 H        -2.813556        -1.978756        -0.687499
 H        -1.610872         2.157917        -0.719421
 H        -1.680363         1.295223        -2.186205
 H        -5.064626         2.507704        -2.481723
