19
Iteration:  1863charge 0 multiplicity 1
 C         1.418707         0.156962         0.620969
 C         0.002126         0.004646         0.323049
 C        -1.204311        -0.009631         0.106700
 C        -2.535091        -0.248016        -0.385416
 C        -2.934446        -1.691539        -0.668718
 C        -3.083531         0.543533        -1.551681
 O        -2.953168         1.946472        -1.304031
 C        -3.005106         2.693688        -2.382218
 O        -3.333758         2.314644        -3.466770
 H         1.650289         0.003751         1.733689
 H         2.054632        -0.727102         0.179183
 H         1.599728         1.110211         0.198323
 H        -3.195531         0.000264         0.477736
 H        -2.589982        -1.880188        -1.709480
 H        -2.529248        -2.389461         0.120705
 H        -4.057400        -1.664630        -0.699772
 H        -2.544490         0.311342        -2.433210
 H        -4.118688         0.214194        -1.729013
 H        -2.798075         3.682543        -2.192438
