19
Iteration:  1491charge 0 multiplicity 1
 C         1.197167         0.062907         1.132811
 C         0.019285         0.018031         0.303836
 C        -1.138524         0.200182        -0.088760
 C        -2.523833        -0.011078        -0.665797
 C        -3.037193        -1.592031        -0.558808
 C        -2.565419         0.382329        -2.179051
 O        -2.220728         1.629397        -2.664352
 C        -3.097340         2.629867        -2.345423
 O        -4.201832         2.461481        -1.834768
 H         0.712823         0.714921         1.955813
 H         1.470058        -1.004784         1.485723
 H         2.037657         0.581607         0.720828
 H        -3.289926         0.548843        -0.112814
 H        -3.434472        -2.067152        -1.531438
 H        -2.180083        -2.045011        -0.012769
 H        -3.832064        -1.657573         0.261403
 H        -1.949419        -0.367955        -2.661840
 H        -3.579555         0.227732        -2.486994
 H        -2.663931         3.565949        -2.457103
