19
Iteration:  2921charge 0 multiplicity 1
 C         1.238147        -1.082826        -0.689545
 C        -0.069237        -0.491706        -0.248757
 C        -1.245985        -0.114471         0.070978
 C        -2.570238         0.095641         0.777558
 C        -3.208050         1.529793         0.607669
 O        -3.362269        -1.095078         0.367500
 C        -3.078694        -2.344243         0.941110
 C        -2.239647        -3.088801        -0.166874
 O        -2.193439        -4.278566        -0.048531
 H         1.382363        -0.913368        -1.792044
 H         1.984344        -0.436198        -0.110671
 H         1.402703        -2.111902        -0.438017
 H        -2.361822         0.075613         1.866640
 H        -4.247158         1.562641         0.928844
 H        -2.532588         2.018087         1.353339
 H        -3.169263         2.017461        -0.365257
 H        -2.441698        -2.328161         1.853576
 H        -4.086754        -2.855041         0.982267
 H        -1.799935        -2.299565        -0.980139
