19
Iteration:  2130
 C         1.012871        -1.359578        -0.581894
 C        -0.289496        -0.818943        -0.272383
 C        -1.292467        -0.475487         0.227551
 C        -2.586147         0.063872         0.692303
 C        -3.311655         1.326893         0.185660
 O        -3.610932        -0.923321         0.288650
 C        -3.157812        -2.191081         0.705367
 C        -2.132586        -2.889341        -0.128893
 O        -1.397151        -3.661882         0.501142
 H         0.955243        -2.174908        -1.269052
 H         1.762896        -0.566628        -0.870903
 H         1.531606        -1.923696         0.262531
 H        -2.622137         0.060594         1.789027
 H        -4.367684         0.988463         0.044654
 H        -3.250007         2.190437         0.935250
 H        -2.829729         1.645386        -0.736625
 H        -2.626280        -2.117304         1.666245
 H        -3.939282        -2.904762         0.906717
 H        -2.222993        -2.889686        -1.368672
