19
Iteration:  4023
 C         1.204544        -1.321716        -0.363760
 C        -0.148957        -0.914415        -0.009020
 C        -1.221258        -0.636180         0.530971
 C        -2.508708        -0.163125         1.075536
 C        -2.752621         1.406341         0.689876
 O        -3.713275        -0.907968         0.705794
 C        -3.397403        -2.363873         0.489381
 C        -2.460444        -2.589960        -0.662096
 O        -1.713751        -3.581822        -0.713484
 H         1.396065        -1.229348        -1.447707
 H         1.759469        -0.503034         0.105497
 H         1.563242        -2.250376         0.003289
 H        -2.296789        -0.303314         2.190767
 H        -2.310388         2.188249         1.314084
 H        -2.498222         1.576147        -0.352360
 H        -3.811511         1.710010         0.979414
 H        -3.170988        -2.836751         1.487500
 H        -4.366512        -2.849684         0.187288
 H        -2.852392        -1.857453        -1.450540
