19
Iteration:  1741
 C         1.674752         0.106897        -0.193883
 C         0.239198         0.150781        -0.006171
 C        -0.945462         0.080060         0.030916
 C        -2.403890        -0.053770         0.485504
 C        -3.273002         0.992094        -0.069548
 O        -3.038186        -1.235109        -0.054195
 C        -2.631701        -2.389138         0.525566
 C        -3.334051        -3.711220         0.127402
 O        -2.935042        -4.669515         0.788149
 H         2.090552         1.119437        -0.389347
 H         2.163957        -0.415600         0.642676
 H         1.896761        -0.441419        -1.133810
 H        -2.477319        -0.162241         1.603904
 H        -4.334027         0.731760         0.088109
 H        -2.988311         1.974506         0.497753
 H        -3.139347         1.086614        -1.119027
 H        -1.509410        -2.502907         0.299641
 H        -2.775807        -2.382211         1.615063
 H        -4.122060        -3.861330        -0.718303
