19
Iteration:  3483
 C         1.395191        -0.838163        -0.541154
 C         0.045858        -0.545373         0.055918
 C        -1.161452        -0.393480         0.267511
 C        -2.453387        -0.009067         0.964000
 C        -3.060329         1.377538         0.532528
 O        -3.463498        -0.901244         0.619405
 C        -3.267709        -2.387333         0.714429
 C        -2.519439        -3.031998        -0.408035
 O        -2.196935        -4.202515        -0.435976
 H         1.186069        -0.626626        -1.656432
 H         2.233841        -0.151033        -0.250931
 H         1.950623        -1.756866        -0.373826
 H        -2.172676        -0.044185         2.023974
 H        -2.826399         2.177492         1.258566
 H        -2.664044         1.667752        -0.486475
 H        -4.120822         1.187777         0.520844
 H        -2.874075        -2.686211         1.749334
 H        -4.304065        -2.737104         0.577698
 H        -2.432372        -2.638052        -1.404805
