19
Iteration:   353charge 0 multiplicity 1
 C         1.528806         0.076308         0.218306
 C         0.125750         0.410376        -0.049073
 C        -1.050705         0.135516        -0.057201
 C        -2.477155        -0.136919         0.109745
 C        -3.458903         0.874303        -0.673027
 O        -2.744591        -1.463268        -0.346845
 C        -2.229217        -2.615527         0.302746
 C        -3.242435        -3.613205         0.539310
 O        -3.120313        -4.334884         1.526609
 H         2.239274         0.919558         0.589195
 H         1.577303        -0.758323         0.962842
 H         1.939595        -0.204053        -0.743651
 H        -2.777443        -0.138655         1.132106
 H        -2.883955         1.483515        -1.410221
 H        -4.334482         0.327409        -1.114147
 H        -3.830953         1.591770         0.077998
 H        -1.352103        -2.920561        -0.269034
 H        -1.902190        -2.440530         1.317091
 H        -4.043978        -3.869142        -0.166973
