19
Iteration:   647charge 0 multiplicity 1
 C         1.525805         0.511655        -0.317751
 C         0.199774         0.207400         0.181055
 C        -0.965035        -0.137252         0.279828
 C        -2.406815        -0.166652         0.246347
 C        -3.097736         0.823905        -0.699501
 O        -2.786241        -1.506498        -0.214517
 C        -2.835496        -2.253642         1.026832
 C        -3.398474        -3.620593         0.580327
 O        -2.883628        -4.675938         0.712263
 H         1.669258         1.633090        -0.560257
 H         2.376427         0.351892         0.450158
 H         1.718343        -0.171501        -1.159077
 H        -2.682204         0.003629         1.284104
 H        -4.161740         0.648069        -0.583322
 H        -2.805008         1.881787        -0.539946
 H        -2.733368         0.704626        -1.784839
 H        -1.846225        -2.316895         1.442697
 H        -3.536247        -1.885701         1.831991
 H        -4.389208        -3.546104         0.019713
