19
Iteration:  4751
 C         1.880898        -0.195198         0.553439
 C         0.368833        -0.344394         0.472210
 C        -0.870344        -0.426573         0.651321
 C        -2.222382        -0.237709         1.009992
 C        -2.696940         1.173929         1.237858
 O        -3.169284        -0.982012         0.109498
 C        -2.970063        -2.405036         0.159999
 C        -3.629584        -3.214364        -0.925265
 O        -3.320214        -4.300866        -1.426065
 H         2.078469         0.870778         0.495634
 H         2.150073        -0.789070         1.362173
 H         2.440737        -0.743342        -0.236596
 H        -2.279667        -0.700113         1.956608
 H        -1.849182         1.782988         1.523808
 H        -2.878138         1.598112         0.158386
 H        -3.510445         1.438893         1.907574
 H        -1.933753        -2.671805        -0.159063
 H        -2.988912        -2.952640         1.113267
 H        -4.599274        -2.725045        -1.114068
