19
Iteration:  4252charge 0 multiplicity 1
 C         1.426779        -1.056053        -0.066734
 C         0.042106        -0.600702         0.223371
 C        -1.060362        -0.347812         0.704423
 C        -2.507396        -0.051959         1.097645
 C        -3.006798         1.350981         0.991735
 O        -3.341983        -0.866227         0.264474
 C        -3.051681        -2.264448         0.467442
 C        -2.508924        -2.972180        -0.723593
 O        -2.692746        -4.105087        -1.136218
 H         2.116555        -0.442113        -0.670717
 H         2.002941        -1.310378         0.873956
 H         1.324214        -1.974452        -0.644462
 H        -2.769339        -0.468275         2.142832
 H        -2.244057         1.952137         1.387623
 H        -3.057253         1.723866        -0.034198
 H        -3.888355         1.503237         1.624576
 H        -2.145346        -2.258702         1.125149
 H        -3.845761        -2.822867         0.905674
 H        -1.806273        -2.249896        -1.219403
