19
Iteration:  1906charge 0 multiplicity 1
 C         1.399198        -0.343594        -0.273384
 C        -0.081222        -0.503114        -0.002297
 C        -1.174550        -0.085024         0.176841
 C        -2.521079         0.183000         0.470282
 C        -3.277166         1.154434        -0.603744
 O        -3.232966        -1.083442         0.804549
 C        -2.541147        -2.306922         1.165910
 C        -2.805186        -3.407621         0.006493
 O        -2.503022        -4.556054        -0.026289
 H         2.134894        -1.120770         0.176256
 H         1.684035        -0.319249        -1.311809
 H         1.761351         0.645196         0.041096
 H        -2.619054         0.924813         1.250735
 H        -4.361805         1.285488        -0.406124
 H        -2.721592         2.031540        -0.388787
 H        -3.119104         0.936940        -1.647681
 H        -1.496814        -2.040126         1.333986
 H        -2.973851        -2.713514         2.058893
 H        -3.352357        -2.918301        -0.903573
