19
Iteration:   427charge 0 multiplicity 1
 C         1.482640         0.244514         0.033373
 C         0.066370         0.030726         0.195943
 C        -1.139165         0.087425         0.241489
 C        -2.538321        -0.146242         0.136120
 C        -3.372924         0.939851        -0.691963
 O        -2.762663        -1.471180        -0.353419
 C        -2.092817        -2.515990         0.317958
 C        -3.064072        -3.762859         0.353348
 O        -3.225003        -4.231018         1.463287
 H         1.753936         0.477990        -1.020471
 H         1.811404         1.130182         0.584497
 H         2.058139        -0.623177         0.213265
 H        -2.993216        -0.088464         1.200306
 H        -4.457410         0.551396        -0.787050
 H        -3.416899         1.892915        -0.128237
 H        -2.963188         0.965098        -1.696845
 H        -1.068444        -2.734330        -0.115861
 H        -1.993835        -2.113646         1.324515
 H        -3.885386        -3.970228        -0.418550
