19
Iteration:  4148
 C         1.203404        -1.220618        -0.196312
 C        -0.152528        -0.817669         0.202163
 C        -1.173604        -0.369684         0.671498
 C        -2.483809        -0.003996         1.171536
 C        -2.869901         1.376630         0.789029
 O        -3.408282        -0.894917         0.456747
 C        -3.020150        -2.337287         0.551805
 C        -2.574279        -2.775014        -0.748099
 O        -2.235626        -3.907773        -1.063052
 H         1.720646        -1.671249         0.633083
 H         1.168102        -1.920617        -0.970137
 H         1.868887        -0.437412        -0.557452
 H        -2.726090        -0.345659         2.224350
 H        -2.141386         2.148363         1.109539
 H        -3.097176         1.509215        -0.274313
 H        -3.838253         1.585636         1.185516
 H        -2.297861        -2.641016         1.335062
 H        -3.912587        -2.931508         0.934247
 H        -2.439480        -1.871484        -1.331429
