19
Iteration:  1391charge 0 multiplicity 1
 C         1.583735         0.444292        -0.377778
 C         0.309612         0.259672         0.209867
 C        -0.919677         0.156355         0.254261
 C        -2.367640        -0.078215         0.517323
 C        -3.253428         0.759060        -0.408132
 O        -2.679720        -1.379753         0.036285
 C        -2.738258        -2.458508         1.017153
 C        -3.231410        -3.641455         0.088806
 O        -3.301579        -4.765472         0.459334
 H         2.408328         0.795706         0.278956
 H         2.016021        -0.539612        -0.737932
 H         1.606884         1.142460        -1.266644
 H        -2.717575         0.013436         1.580835
 H        -3.306653         1.785533        -0.106377
 H        -2.815680         0.872665        -1.375604
 H        -4.183084         0.158081        -0.449831
 H        -1.749898        -2.751209         1.347760
 H        -3.319590        -2.266220         1.950261
 H        -3.685941        -3.408765        -0.838440
