19
Iteration:  2774charge 0 multiplicity 1
 C         1.408487        -0.401867        -0.666694
 C         0.045638        -0.311585        -0.183155
 C        -1.141268        -0.381891         0.259514
 C        -2.445225         0.045044         0.871742
 C        -2.994448         1.183268        -0.013776
 O        -3.462512        -1.016399         0.776565
 C        -2.827659        -2.322678         1.041607
 C        -2.745581        -3.255984        -0.173180
 O        -2.533013        -4.464664        -0.172018
 H         2.034535        -0.813887         0.093144
 H         1.499966        -0.815884        -1.657763
 H         1.607426         0.694394        -0.897106
 H        -2.416231         0.332597         1.947448
 H        -4.064082         1.116327         0.055527
 H        -2.595402         2.191141         0.101591
 H        -2.661090         0.817439        -0.937963
 H        -1.710474        -2.142416         1.188466
 H        -3.363505        -2.836055         1.820722
 H        -2.863590        -2.715774        -1.088733
