19
Iteration:  4727
 C         1.908227        -0.408096         0.572054
 C         0.318004        -0.203797         0.432232
 C        -0.874258        -0.328045         0.637374
 C        -2.293378        -0.292245         1.034487
 C        -2.726036         1.145631         1.112818
 O        -3.226193        -1.009120         0.252005
 C        -2.859801        -2.389176         0.099631
 C        -3.574697        -3.130793        -0.984129
 O        -3.287406        -4.267755        -1.336169
 H         2.196623         0.528781         1.017193
 H         2.213395        -1.364955         0.784912
 H         2.177135        -0.295433        -0.493885
 H        -2.193026        -0.661288         2.024303
 H        -1.926493         1.749266         1.524478
 H        -2.998930         1.480117         0.075690
 H        -3.594265         1.261765         1.809734
 H        -1.777005        -2.698458        -0.031373
 H        -3.104981        -2.951425         1.003986
 H        -4.428544        -2.545199        -1.356663
