19
Iteration:  1351
 C         1.669908         0.386635        -0.363511
 C         0.208184         0.275730         0.113036
 C        -0.968258         0.142611         0.479353
 C        -2.425050        -0.083881         0.480053
 C        -3.239268         1.018651        -0.393419
 O        -2.771798        -1.404646        -0.054669
 C        -2.731527        -2.476504         0.832905
 C        -3.346897        -3.766647         0.102779
 O        -3.084945        -4.824410         0.604685
 H         2.264188        -0.221402         0.369738
 H         1.737380        -0.113440        -1.291065
 H         2.075956         1.415710        -0.462220
 H        -2.665671        -0.045379         1.540413
 H        -2.462407         1.803778        -0.731141
 H        -3.588390         0.472580        -1.322705
 H        -3.916883         1.672731         0.076255
 H        -1.619873        -2.729791         0.944466
 H        -3.107519        -2.318399         1.873211
 H        -3.869098        -3.463700        -0.878025
