19
Iteration:  4790charge 0 multiplicity 1
 C         1.791823        -0.063750         0.484554
 C         0.425439        -0.401930         0.696963
 C        -0.784222        -0.418775         0.730635
 C        -2.261477        -0.399253         1.000495
 C        -2.710693         0.999045         1.119455
 O        -3.037671        -1.003841        -0.012479
 C        -2.861139        -2.423099         0.130255
 C        -3.727837        -3.119206        -0.836044
 O        -3.439730        -4.154767        -1.372528
 H         1.857965         0.558172        -0.477260
 H         2.517139         0.600652         1.129021
 H         2.394893        -0.919947         0.126698
 H        -2.376566        -0.995548         1.982245
 H        -2.140590         1.504520         1.914891
 H        -2.572479         1.530286         0.213434
 H        -3.788811         0.879446         1.361349
 H        -1.799764        -2.682462        -0.070062
 H        -3.155104        -2.708658         1.158733
 H        -4.635537        -2.513703        -1.232035
