19
Iteration:  3334
 C         1.233574        -0.976478        -0.539404
 C        -0.082775        -0.622389         0.030944
 C        -1.177218        -0.269955         0.456911
 C        -2.501870        -0.005910         0.903164
 C        -3.004614         1.342890         0.332274
 O        -3.464241        -0.973946         0.577695
 C        -3.232814        -2.390929         0.856623
 C        -2.557705        -3.002614        -0.348093
 O        -1.909182        -4.033332        -0.431522
 H         1.822417        -1.733531         0.001489
 H         1.093079        -1.412434        -1.578127
 H         1.924908        -0.087336        -0.773655
 H        -2.371563         0.124059         1.992090
 H        -2.201899         1.693878        -0.350522
 H        -3.884737         1.121717        -0.315152
 H        -3.353313         2.087946         1.111571
 H        -2.957880        -2.564594         1.866087
 H        -4.266832        -2.768644         0.663127
 H        -2.783390        -2.437668        -1.345259
