19
Iteration:  1907
 C         1.405470        -0.345576        -0.272657
 C        -0.085451        -0.507389        -0.007268
 C        -1.170624        -0.091505         0.181201
 C        -2.524542         0.179748         0.463746
 C        -3.281513         1.156887        -0.596239
 O        -3.233418        -1.079181         0.803218
 C        -2.545939        -2.306169         1.169466
 C        -2.805113        -3.402185         0.002846
 O        -2.499189        -4.551109        -0.027294
 H         2.131714        -1.106512         0.203635
 H         1.695232        -0.340685        -1.294472
 H         1.769203         0.625958         0.014056
 H        -2.599649         0.920536         1.258416
 H        -4.378759         1.226918        -0.401434
 H        -2.750133         2.036246        -0.397160
 H        -3.129060         0.943694        -1.677267
 H        -1.482983        -2.022638         1.332051
 H        -2.965452        -2.714103         2.068359
 H        -3.329913        -2.915964        -0.877971
