19
Iteration:    59charge 0 multiplicity 1
 C         1.752238         0.230979        -0.167530
 C         0.252458         0.137780        -0.086831
 C        -0.957899         0.112112        -0.165884
 C        -2.465561        -0.038121        -0.025799
 C        -3.263460         0.733835        -1.144476
 O        -2.685035        -1.496900        -0.037259
 C        -2.749567        -2.210693         1.201210
 C        -3.505025        -3.559045         0.968096
 O        -3.018266        -4.666504         1.074522
 H         2.107791         1.238056         0.195255
 H         2.279902        -0.519798         0.406861
 H         2.017081         0.187376        -1.194136
 H        -2.722563         0.405661         0.956935
 H        -4.298665         0.261551        -1.243316
 H        -3.444345         1.732512        -0.713534
 H        -2.754005         0.793463        -2.104666
 H        -1.770487        -2.544106         1.564231
 H        -3.252586        -1.624370         1.980227
 H        -4.511895        -3.430345         0.549329
