19
Iteration:   842charge 0 multiplicity 1
 C         1.347604        -0.376469         0.004735
 C         0.128755         0.382306        -0.040079
 C        -1.080291         0.175050        -0.185560
 C        -2.485447         0.075912         0.202896
 C        -3.476398         0.960949        -0.559713
 O        -2.997615        -1.320263         0.141862
 C        -2.538500        -2.307073         1.014773
 C        -2.447602        -3.622913         0.284154
 O        -3.044280        -4.607623         0.697667
 H         1.550125        -0.609063         1.062678
 H         1.266105        -1.293893        -0.615469
 H         2.152347         0.238193        -0.304834
 H        -2.666895         0.373548         1.232269
 H        -4.352402         1.306637         0.059074
 H        -3.115421         1.980746        -0.693564
 H        -3.943176         0.440354        -1.486511
 H        -1.464745        -2.117544         1.336493
 H        -3.081194        -2.495460         1.970979
 H        -1.906856        -3.642942        -0.722295
