19
Iteration:  2716charge 0 multiplicity 1
 C         1.514377        -0.227753        -0.598551
 C         0.165707        -0.228987        -0.090513
 C        -1.035159        -0.374182         0.182024
 C        -2.420300         0.069473         0.725630
 C        -3.210410         1.090531        -0.135903
 O        -3.261243        -1.061380         0.850923
 C        -2.865567        -2.362369         1.205657
 C        -2.806652        -3.283650        -0.139633
 O        -2.739312        -4.504863        -0.252828
 H         1.864481        -1.261651        -0.983700
 H         1.679363         0.374215        -1.492835
 H         2.299618        -0.008209         0.158290
 H        -2.243022         0.560834         1.726920
 H        -4.042972         1.624241         0.318738
 H        -2.557419         1.832357        -0.665118
 H        -3.726006         0.503415        -0.924551
 H        -1.845371        -2.342339         1.644474
 H        -3.528428        -2.908833         1.877539
 H        -2.853960        -2.728300        -1.082755
