19
Iteration:   116charge 0 multiplicity 1
 C         1.684364         0.410398        -0.181621
 C         0.234549         0.267952        -0.184404
 C        -0.925950        -0.037842         0.015554
 C        -2.388773        -0.078070         0.039874
 C        -3.126371         0.639582        -1.165151
 O        -2.817337        -1.548393         0.044441
 C        -2.625321        -2.292625         1.190705
 C        -3.566761        -3.489147         0.930837
 O        -3.085221        -4.600678         0.910654
 H         2.038652         1.084161        -0.948880
 H         1.952085         0.849296         0.797824
 H         2.126342        -0.635858        -0.222076
 H        -2.728153         0.311082         1.046007
 H        -3.736210         1.463362        -0.805677
 H        -2.418304         0.969317        -2.034268
 H        -3.876013        -0.154165        -1.526610
 H        -1.634526        -2.739721         1.338020
 H        -2.972825        -1.782613         2.102089
 H        -4.589904        -3.252046         1.156587
