19
Iteration:  2742charge 0 multiplicity 1
 C         1.380936        -0.286809        -0.595512
 C         0.080221        -0.408039        -0.235224
 C        -1.027211        -0.205226         0.330161
 C        -2.391572         0.026229         0.708657
 C        -3.088116         1.106780        -0.103135
 O        -3.280506        -1.067455         0.892194
 C        -2.861861        -2.428251         1.017169
 C        -2.799543        -3.229301        -0.238494
 O        -2.659669        -4.436195        -0.094705
 H         2.132785        -0.987119        -0.394091
 H         1.574092         0.022414        -1.621083
 H         1.682300         0.631667         0.006731
 H        -2.299497         0.533982         1.710205
 H        -4.003085         1.401286         0.399052
 H        -2.511483         2.000131        -0.301896
 H        -3.403576         0.740996        -1.069826
 H        -1.884200        -2.597959         1.652013
 H        -3.677804        -3.019369         1.483356
 H        -2.936086        -2.790736        -1.293714
