19
Iteration:  1556
 C         1.533820         0.726174        -0.124698
 C         0.198917         0.261583        -0.180416
 C        -0.869957        -0.161481         0.287163
 C        -2.282337        -0.267517         0.480184
 C        -3.114074         0.862211        -0.043676
 O        -2.900405        -1.396376        -0.177927
 C        -2.277242        -2.583933         0.285821
 C        -3.276912        -3.731081         0.126567
 O        -3.605489        -4.557062         0.996051
 H         2.205651         0.219824        -0.878651
 H         1.543588         1.791660        -0.264539
 H         1.916577         0.418774         0.897260
 H        -2.521878        -0.307526         1.561356
 H        -3.243571         0.840088        -1.148141
 H        -4.188532         0.961413         0.383103
 H        -2.426365         1.732290         0.023719
 H        -1.296742        -2.788713        -0.251109
 H        -1.994178        -2.428855         1.391853
 H        -3.721597        -3.686363        -0.843942
