19
Iteration:    34charge 0 multiplicity 1
 C         1.582302         0.214172        -0.150338
 C         0.198164        -0.125300        -0.195821
 C        -0.998420         0.017346         0.019584
 C        -2.430216        -0.032031         0.019916
 C        -3.268898         0.691684        -1.098541
 O        -2.701159        -1.456152        -0.094575
 C        -2.638314        -2.178511         1.112424
 C        -3.348124        -3.422235         0.791116
 O        -3.031562        -4.532728         1.223990
 H         1.750480         0.910252         0.689538
 H         2.304645        -0.611772        -0.105298
 H         1.862250         0.788521        -1.041201
 H        -2.729106         0.364418         0.959868
 H        -3.864632        -0.077808        -1.619232
 H        -3.941926         1.337923        -0.579156
 H        -2.709286         1.306871        -1.792972
 H        -1.631752        -2.449588         1.474122
 H        -3.191310        -1.631891         1.860711
 H        -4.129055        -3.326823         0.046653
