19
Iteration:  4956charge 0 multiplicity 1
 C         1.899251        -0.078555         0.529300
 C         0.374870        -0.196237         0.629677
 C        -0.797281        -0.399589         0.810730
 C        -2.253605        -0.435614         1.046240
 C        -2.934201         0.906862         1.379406
 O        -2.888651        -1.002262        -0.118070
 C        -2.491734        -2.383927        -0.195954
 C        -3.329654        -3.201847        -1.224127
 O        -4.099746        -4.117297        -1.009374
 H         2.086024         0.212007         1.553962
 H         2.106421        -1.184296         0.447833
 H         2.220908         0.696505        -0.171324
 H        -2.531899        -1.210434         1.805765
 H        -2.506211         1.301585         2.254479
 H        -2.523032         1.764272         0.718569
 H        -3.946045         0.650675         1.588747
 H        -1.453762        -2.494586        -0.531108
 H        -2.733269        -2.850417         0.849031
 H        -3.405818        -2.705934        -2.314333
