19
Iteration:  3571
 C         1.038052        -0.937505        -0.741267
 C        -0.087234        -0.619054         0.210588
 C        -1.053694        -0.106820         0.769444
 C        -2.520522        -0.015215         1.023429
 C        -3.012092         1.514378         0.716108
 O        -3.377640        -0.899525         0.205678
 C        -3.072738        -2.252288         0.468315
 C        -2.166668        -3.194980        -0.435291
 O        -2.384641        -4.390664        -0.355636
 H         1.337293        -2.050398        -0.545343
 H         0.742269        -0.741153        -1.783816
 H         1.859876        -0.273481        -0.384971
 H        -2.776197        -0.055984         2.076433
 H        -2.198858         2.237516         0.846139
 H        -3.320858         1.720632        -0.297861
 H        -3.926121         1.740314         1.343639
 H        -2.401673        -2.377394         1.338628
 H        -3.936097        -2.874900         0.664273
 H        -1.531053        -2.551494        -1.085006
