19
Iteration:  2425
 C         1.472090        -0.227455        -0.611156
 C        -0.017075        -0.432229        -0.477810
 C        -1.124751        -0.224561         0.140541
 C        -2.440163         0.019522         0.753879
 C        -2.933085         1.415348         0.219412
 O        -3.323254        -1.111497         0.249187
 C        -3.388940        -2.441338         0.808389
 C        -2.578606        -3.424504         0.080195
 O        -2.364851        -4.516767         0.443883
 H         1.995983        -1.009554        -1.045207
 H         1.786349         0.634324        -1.202607
 H         1.831915        -0.235487         0.455217
 H        -2.328566        -0.044943         1.841536
 H        -3.825734         1.828954         0.674644
 H        -2.114543         2.055203         0.456192
 H        -2.971064         1.402085        -0.904425
 H        -3.246977        -2.370574         1.924731
 H        -4.472202        -2.613719         0.714061
 H        -2.367776        -3.036578        -1.041328
