19
Iteration:  2896charge 0 multiplicity 1
 C         1.115296        -0.931200        -0.673403
 C        -0.120095        -0.450932        -0.130741
 C        -1.176839        -0.099040         0.162759
 C        -2.466788         0.051251         0.734003
 C        -3.081137         1.420763         0.576138
 O        -3.492100        -0.972177         0.294722
 C        -2.930211        -2.204460         0.921843
 C        -2.373807        -3.220324        -0.091025
 O        -2.171618        -4.439359        -0.101508
 H         1.486784        -0.329668        -1.482479
 H         1.833401        -0.890330         0.196938
 H         0.984047        -2.082680        -0.953053
 H        -2.236108        -0.056671         1.821500
 H        -4.075207         1.317819         1.016850
 H        -2.487979         2.166918         0.914473
 H        -3.358642         1.540381        -0.510681
 H        -1.992183        -1.898511         1.450287
 H        -3.707687        -2.663131         1.457146
 H        -2.271457        -2.519884        -1.088083
