19
Iteration:  1240charge 0 multiplicity 1
 C         1.590656         0.078809         0.151219
 C         0.190049         0.012659         0.073132
 C        -1.004370        -0.023279         0.013870
 C        -2.498085         0.030173         0.266051
 C        -3.429899         1.183733        -0.458972
 O        -3.204349        -1.289590         0.255384
 C        -2.338388        -2.415678         0.288963
 C        -3.118088        -3.653996         0.298044
 O        -2.843493        -4.736142         0.737287
 H         2.160607         0.020472        -0.764173
 H         1.807651         1.021764         0.611119
 H         1.998218        -0.703334         0.825558
 H        -2.502122         0.311127         1.315618
 H        -4.245379         0.813984        -1.051347
 H        -3.701510         1.731267         0.427778
 H        -2.793349         1.829831        -1.142279
 H        -1.718212        -2.481811        -0.646384
 H        -1.739184        -2.337577         1.217421
 H        -4.064180        -3.574239        -0.326067
