19
Iteration:  1605
 C         1.662223         0.593956        -0.224579
 C         0.259153         0.280009         0.254194
 C        -0.941239         0.120178         0.174736
 C        -2.287038        -0.128397         0.348505
 C        -3.274631         0.954133        -0.118526
 O        -2.844529        -1.510528         0.073350
 C        -2.219919        -2.781607         0.070504
 C        -3.444910        -3.760607         0.087737
 O        -3.509494        -4.511525         1.034918
 H         2.287387        -0.327593        -0.151496
 H         1.506132         0.961935        -1.315451
 H         2.137776         1.345431         0.410380
 H        -2.309815        -0.232767         1.461312
 H        -2.812590         1.758679        -0.695157
 H        -3.860239         0.366662        -0.741041
 H        -3.756174         1.648663         0.594684
 H        -1.468603        -2.835465        -0.753290
 H        -1.736325        -3.241833         0.955938
 H        -4.235706        -3.648083        -0.660051
