19
Iteration:  3536
 C         1.053788        -0.902918        -0.649134
 C        -0.118011        -0.391195         0.030330
 C        -1.154778        -0.274542         0.661715
 C        -2.518280        -0.080412         1.097462
 C        -2.962784         1.390854         0.587304
 O        -3.237825        -0.951757         0.233526
 C        -3.137082        -2.277002         0.642625
 C        -2.305256        -3.074471        -0.323929
 O        -2.330283        -4.262976        -0.438751
 H         0.959895        -1.993131        -1.024121
 H         1.704090        -0.350329        -1.433131
 H         1.753805        -1.104131         0.163440
 H        -2.656148        -0.359605         2.188322
 H        -2.127178         2.059211         0.870204
 H        -3.242960         1.268025        -0.511918
 H        -3.770180         1.727176         1.217490
 H        -2.707692        -2.280908         1.648345
 H        -4.093511        -2.747184         0.739931
 H        -1.866078        -2.664614        -1.226790
