19
Iteration:  4661charge 0 multiplicity 1
 C         1.729194        -0.626993         0.223041
 C         0.262465        -0.433522         0.518408
 C        -0.875275        -0.227204         0.947890
 C        -2.351499        -0.113283         1.137998
 C        -3.067158         1.258602         0.916565
 O        -3.051553        -1.104061         0.277763
 C        -2.580372        -2.462174         0.203607
 C        -3.222213        -3.015491        -0.983457
 O        -3.449014        -4.170189        -1.293239
 H         2.319215        -1.187531         1.006566
 H         1.987291        -0.956310        -0.805615
 H         2.062899         0.453279         0.253967
 H        -2.675489        -0.413316         2.174154
 H        -2.850280         1.893643         1.819330
 H        -2.740056         1.521846        -0.087804
 H        -4.174753         0.997760         0.875623
 H        -1.491020        -2.344508        -0.041912
 H        -2.577187        -3.180257         1.108038
 H        -3.468780        -2.161687        -1.744318
