19
Iteration:   383
 C         1.564052         0.142629         0.188417
 C         0.119649         0.130883         0.074446
 C        -1.082220         0.170243         0.040669
 C        -2.482552        -0.159169         0.132888
 C        -3.476725         0.742888        -0.659261
 O        -2.897685        -1.447549        -0.351127
 C        -2.062867        -2.468110         0.199473
 C        -3.051260        -3.543572         0.556179
 O        -3.254367        -4.295789         1.479891
 H         2.002995         1.123657        -0.187306
 H         1.989629        -0.072054         1.184802
 H         1.824675        -0.621722        -0.509208
 H        -2.841220        -0.222353         1.239096
 H        -3.479716         0.345801        -1.764067
 H        -4.496643         0.610582        -0.221208
 H        -3.006231         1.735316        -0.633545
 H        -1.204961        -2.646182        -0.502834
 H        -1.814580        -2.208311         1.236542
 H        -3.740236        -3.552735        -0.349684
