19
Iteration:  1397
 C         1.609659         0.443073        -0.367459
 C         0.285335         0.266309         0.173457
 C        -0.928053         0.156607         0.237429
 C        -2.404032        -0.094664         0.468330
 C        -3.231165         0.827233        -0.401098
 O        -2.643858        -1.454542         0.074068
 C        -2.729698        -2.496806         1.029975
 C        -3.250323        -3.601834         0.122614
 O        -3.312555        -4.769038         0.449085
 H         2.301172         0.962572         0.301992
 H         2.072092        -0.494825        -0.646755
 H         1.501025         1.022338        -1.264628
 H        -2.711336         0.061577         1.503221
 H        -3.599032         1.793264         0.092194
 H        -2.664594         0.968473        -1.360355
 H        -4.222012         0.331980        -0.557741
 H        -1.743716        -2.950010         1.395183
 H        -3.260369        -2.155722         1.938910
 H        -3.443525        -3.193497        -1.000292
