19
Iteration:  4140
 C         1.178599        -1.189484        -0.219439
 C        -0.207223        -0.850790         0.244162
 C        -1.226105        -0.353379         0.669963
 C        -2.491378        -0.057612         1.154585
 C        -2.805900         1.344071         0.767931
 O        -3.378239        -0.898423         0.461179
 C        -3.086103        -2.284315         0.637738
 C        -2.587637        -2.795385        -0.785885
 O        -2.166348        -3.894700        -1.079814
 H         1.498422        -1.807118         0.661349
 H         1.108854        -1.847260        -1.165459
 H         1.722110        -0.251284        -0.347661
 H        -2.482869         0.030268         2.268730
 H        -2.021719         2.129553         1.027939
 H        -2.953476         1.185491        -0.293932
 H        -3.639355         1.642947         1.421826
 H        -2.256272        -2.462906         1.322290
 H        -3.982464        -2.824408         0.903030
 H        -2.419395        -2.055082        -1.640832
