19
Iteration:  4334charge 0 multiplicity 1
 C         1.535245        -0.614249        -0.010816
 C         0.156444        -0.471995         0.348363
 C        -0.955071        -0.483884         0.866361
 C        -2.397462        -0.214926         1.169159
 C        -2.718359         1.303126         0.818829
 O        -3.206612        -0.941872         0.292524
 C        -3.386372        -2.323541         0.449906
 C        -2.882464        -3.000020        -0.899320
 O        -2.769474        -4.202797        -1.113919
 H         1.556272        -1.249722        -0.917024
 H         1.913336         0.386704        -0.271401
 H         2.180750        -0.946160         0.869210
 H        -2.696571        -0.589253         2.192505
 H        -2.229599         1.926252         1.637637
 H        -2.432691         1.369432        -0.219258
 H        -3.837512         1.325938         0.695112
 H        -2.883940        -2.659027         1.320559
 H        -4.449795        -2.569783         0.458718
 H        -2.581096        -2.218816        -1.648508
