19
Iteration:  1984charge 0 multiplicity 1
 C         1.333100        -0.778435        -0.258261
 C        -0.035663        -0.309200        -0.134215
 C        -1.186460        -0.096448         0.055168
 C        -2.579932         0.166889         0.511749
 C        -3.362128         1.161166        -0.454007
 O        -3.361476        -0.990817         0.878438
 C        -2.906792        -2.312674         1.187374
 C        -2.507676        -3.279519        -0.034729
 O        -2.097500        -4.402367        -0.105347
 H         2.085788        -0.221100         0.496763
 H         1.336089        -1.857749        -0.067762
 H         1.796727        -0.618546        -1.241463
 H        -2.502326         0.894733         1.358440
 H        -4.278170         1.430173         0.053298
 H        -2.748536         1.933640        -0.791203
 H        -3.687247         0.605520        -1.387908
 H        -2.133257        -2.351494         1.978862
 H        -3.794340        -2.708138         1.642957
 H        -2.623855        -2.643956        -0.958332
