19
Iteration:   994charge 0 multiplicity 1
 C         1.527152         0.097570        -0.248873
 C         0.102833        -0.154575        -0.087211
 C        -1.091279        -0.105894         0.220117
 C        -2.452914        -0.044260         0.397463
 C        -3.000016         1.040853        -0.648853
 O        -3.238012        -1.209619         0.094063
 C        -3.139608        -2.333859         0.961227
 C        -2.845317        -3.615577         0.160085
 O        -2.534570        -4.580194         0.797083
 H         2.018199        -0.158225        -1.214553
 H         1.627814         1.213590        -0.104599
 H         2.008501        -0.314872         0.645415
 H        -2.704132         0.276376         1.455331
 H        -4.031392         0.705984        -0.958526
 H        -3.051028         2.004317        -0.090658
 H        -2.240995         1.215899        -1.408410
 H        -2.283549        -2.137810         1.714482
 H        -4.080081        -2.487425         1.547449
 H        -2.962245        -3.520761        -0.956676
