19
Iteration:   737charge 0 multiplicity 1
 C         1.614698         0.057160        -0.169729
 C         0.134021         0.200422         0.044424
 C        -1.099593         0.017653         0.181238
 C        -2.564421        -0.005265         0.279728
 C        -3.247731         0.909430        -0.775258
 O        -3.208208        -1.286632         0.216750
 C        -2.430114        -2.360416         0.918585
 C        -2.820405        -3.626113         0.210938
 O        -3.028770        -4.668983         0.794523
 H         1.719831        -0.734911        -0.952096
 H         2.218955         0.955290        -0.477735
 H         2.115044        -0.314803         0.727253
 H        -2.821721         0.356570         1.285106
 H        -4.345216         0.704485        -0.743072
 H        -3.027834         1.931979        -0.439671
 H        -2.890313         0.935630        -1.758988
 H        -1.419550        -2.159949         0.775140
 H        -2.692605        -2.375717         1.973444
 H        -2.970461        -3.547129        -0.903986
