19
Iteration:  3562charge 0 multiplicity 1
 C         0.997625        -0.932461        -0.692315
 C        -0.110558        -0.542779         0.139918
 C        -1.100759        -0.223726         0.787682
 C        -2.498607         0.043482         1.010689
 C        -3.004845         1.510675         0.685666
 O        -3.336453        -0.922099         0.200322
 C        -3.046160        -2.275230         0.518978
 C        -2.200625        -3.140136        -0.454251
 O        -2.378017        -4.347860        -0.359047
 H         1.268252        -2.036052        -0.699101
 H         0.907800        -0.593380        -1.697520
 H         1.971742        -0.527682        -0.290684
 H        -2.692938        -0.260834         2.050437
 H        -2.212516         2.211548         0.897689
 H        -3.365641         1.451643        -0.294497
 H        -3.832729         1.747954         1.413768
 H        -2.547328        -2.319762         1.556364
 H        -4.012336        -2.859747         0.680519
 H        -1.333723        -2.972535        -1.127448
