19
Iteration:   601charge 0 multiplicity 1
 C         1.718193         0.690506        -0.098359
 C         0.311842         0.347640        -0.172445
 C        -0.815232        -0.117012         0.095113
 C        -2.357325        -0.067858         0.159417
 C        -3.115218         0.949374        -0.832630
 O        -2.958248        -1.479700        -0.009362
 C        -2.858072        -2.446257         1.046066
 C        -3.600660        -3.802094         0.700750
 O        -2.938388        -4.864887         0.720341
 H         1.910304         1.329117         0.840747
 H         2.459492        -0.152646         0.076717
 H         2.034047         1.140870        -1.141931
 H        -2.520785         0.236082         1.208151
 H        -4.078835         0.452652        -1.016691
 H        -3.186169         1.908973        -0.246976
 H        -2.416771         1.193526        -1.699606
 H        -1.987780        -2.776645         1.499204
 H        -3.443376        -1.973726         1.929129
 H        -4.676660        -3.739277         0.324948
