19
Iteration:  1214
 C         1.439376        -0.105925         0.203989
 C         0.063979         0.167440        -0.100470
 C        -1.168165         0.123240         0.048595
 C        -2.597094         0.080917         0.438401
 C        -3.254455         1.076977        -0.533860
 O        -3.031651        -1.323330         0.261912
 C        -2.143190        -2.392139         0.257835
 C        -3.165132        -3.604089         0.372480
 O        -2.850879        -4.727958         0.682763
 H         2.144218         0.341919        -0.555206
 H         1.728513         0.365320         1.261766
 H         1.668481        -1.196361         0.211095
 H        -2.792873         0.316807         1.496353
 H        -4.186063         0.593866        -0.928184
 H        -3.528300         1.951002         0.088983
 H        -2.635117         1.293319        -1.398259
 H        -1.564763        -2.342298        -0.733839
 H        -1.536667        -2.423939         1.205948
 H        -4.138449        -3.459257        -0.070929
