19
Iteration:  3248
 C         0.998476        -1.298397        -0.664404
 C        -0.204389        -0.701235        -0.017523
 C        -1.108817         0.020608         0.486564
 C        -2.473687         0.117170         0.932807
 C        -3.249875         1.397060         0.517513
 O        -3.380485        -0.899092         0.371949
 C        -3.184703        -2.224384         0.784013
 C        -2.212280        -3.052139        -0.327922
 O        -1.866493        -4.204448        -0.312937
 H         0.748467        -1.899038        -1.505374
 H         1.658254        -0.410085        -0.835593
 H         1.350706        -2.057420         0.017502
 H        -2.470658        -0.005094         2.059525
 H        -2.554635         2.260315         0.637970
 H        -3.559473         1.377297        -0.528130
 H        -4.044782         1.637277         1.241251
 H        -2.645934        -2.400488         1.798490
 H        -4.163126        -2.815599         0.823156
 H        -1.972303        -2.329124        -1.275620
