19
Iteration:   444
 C         1.519033         0.251593        -0.001820
 C         0.050561         0.240407         0.120340
 C        -1.141444         0.132751         0.305550
 C        -2.607974        -0.212915         0.207369
 C        -3.199451         0.828179        -0.633727
 O        -2.865468        -1.477562        -0.484452
 C        -2.164972        -2.482185         0.330979
 C        -3.031498        -3.647821         0.466227
 O        -3.272363        -4.360621         1.428721
 H         1.907160         0.091483        -1.010410
 H         1.919741         1.228967         0.347475
 H         1.980206        -0.616912         0.630129
 H        -2.983502        -0.218868         1.210919
 H        -4.253855         0.963636        -0.495367
 H        -2.746164         1.784327        -0.400736
 H        -3.048125         0.587624        -1.711191
 H        -1.237447        -2.762845        -0.154176
 H        -1.957066        -2.129220         1.390966
 H        -3.335827        -4.053404        -0.509747
