19
Iteration:  4455charge 0 multiplicity 1
 C         1.725475        -0.475659         0.240293
 C         0.317653        -0.341684         0.294162
 C        -0.859861        -0.553524         0.577660
 C        -2.226277        -0.175770         1.052515
 C        -2.888791         1.262562         1.061000
 O        -3.269676        -0.937360         0.166301
 C        -3.246771        -2.348127         0.373520
 C        -3.079767        -3.081011        -0.902101
 O        -3.018544        -4.288801        -1.098046
 H         2.097512        -0.077864         1.199366
 H         2.043540        -1.571172         0.301846
 H         2.167664        -0.018596        -0.708991
 H        -2.529195        -0.494086         2.122955
 H        -2.016534         1.849723         1.414148
 H        -3.367675         1.718276         0.149616
 H        -3.675292         1.201278         1.901579
 H        -2.320197        -2.723236         1.004682
 H        -4.279360        -2.489136         0.738005
 H        -3.270405        -2.425659        -1.712636
