19
Iteration:  4441
 C         1.750459        -0.449860         0.255677
 C         0.238140        -0.404468         0.246343
 C        -0.922449        -0.519642         0.643727
 C        -2.343151        -0.276335         0.962594
 C        -2.758734         1.215202         1.087307
 O        -3.262668        -0.882272         0.173663
 C        -3.218378        -2.293646         0.397406
 C        -3.134345        -3.073255        -0.950649
 O        -2.969412        -4.265547        -1.054236
 H         2.123564        -0.217643         1.282158
 H         2.056249        -1.410667        -0.104977
 H         2.226270         0.338017        -0.363522
 H        -2.364587        -0.736777         1.943091
 H        -2.010419         2.025148         1.174135
 H        -3.148252         1.330350         0.105273
 H        -3.496830         1.213943         1.846671
 H        -2.550039        -2.568072         1.310756
 H        -4.143616        -2.799736         0.868420
 H        -3.182895        -2.390563        -1.812578
