19
Iteration:    44
 C         1.641751         0.252374        -0.177471
 C         0.210486        -0.064087        -0.145654
 C        -0.974214        -0.001090        -0.018784
 C        -2.424442        -0.040553        -0.051812
 C        -3.323782         0.749575        -1.113909
 O        -2.646731        -1.447751        -0.042437
 C        -2.630161        -2.130682         1.190459
 C        -3.483407        -3.548177         0.777440
 O        -3.007110        -4.573016         1.184449
 H         1.830153         0.988202         0.611292
 H         2.129912        -0.672859         0.182357
 H         1.986648         0.599087        -1.198426
 H        -2.800407         0.245714         0.889951
 H        -4.029230         0.062550        -1.574553
 H        -3.888449         1.569581        -0.691571
 H        -2.645754         1.058123        -1.905607
 H        -1.620203        -2.422171         1.577613
 H        -3.106134        -1.574688         2.000520
 H        -4.431905        -3.359728         0.255138
