19
Iteration:  3522
 C         1.153579        -0.928487        -0.602583
 C        -0.067444        -0.397736        -0.024082
 C        -1.049604        -0.148780         0.657018
 C        -2.484552        -0.032253         0.990369
 C        -2.930110         1.318472         0.640057
 O        -3.379111        -0.984696         0.277934
 C        -3.226511        -2.335734         0.728068
 C        -2.402881        -3.063852        -0.393638
 O        -2.270636        -4.281828        -0.444643
 H         0.864406        -1.655269        -1.321616
 H         1.566673        -0.068485        -1.162007
 H         1.815845        -1.408537         0.150923
 H        -2.678181        -0.162145         2.096527
 H        -2.168716         2.091394         0.759983
 H        -3.002635         1.278077        -0.480557
 H        -3.923832         1.627044         0.948492
 H        -2.714338        -2.546587         1.654468
 H        -4.226095        -2.793515         0.828899
 H        -1.890423        -2.239397        -0.845051
