19
Iteration:  1878charge 0 multiplicity 1
 C         1.419877        -0.265906        -0.345005
 C        -0.036061        -0.173168         0.076507
 C        -1.179903        -0.023694         0.222618
 C        -2.526482         0.121397         0.593416
 C        -3.071893         1.000448        -0.568577
 O        -3.295198        -1.124518         0.711777
 C        -2.564744        -2.357041         1.003621
 C        -2.917574        -3.406083        -0.040482
 O        -2.569634        -4.593159         0.122682
 H         1.694494        -1.282211        -0.537509
 H         1.585160         0.216905        -1.353314
 H         2.147454         0.194200         0.354112
 H        -2.638324         0.769900         1.491117
 H        -4.005242         1.580265        -0.312855
 H        -2.319095         1.756792        -0.930918
 H        -3.222777         0.217023        -1.397195
 H        -1.468879        -2.089814         0.937040
 H        -2.802354        -2.773510         2.028999
 H        -3.471583        -3.076881        -0.992363
