19
Iteration:  2281charge 0 multiplicity 1
 C         1.143569        -1.023343        -0.842838
 C        -0.072583        -0.369003        -0.069056
 C        -1.255690        -0.288392         0.124578
 C        -2.687171        -0.128230         0.589932
 C        -2.946523         1.341453         0.490231
 O        -3.645893        -1.020319        -0.032061
 C        -3.383149        -2.299346         0.551144
 C        -2.195741        -3.089211         0.045833
 O        -1.685188        -3.969515         0.799721
 H         2.119438        -0.596455        -0.668447
 H         1.235813        -2.041562        -0.472092
 H         0.962424        -0.917799        -1.903047
 H        -2.685137        -0.384732         1.667333
 H        -3.977388         1.640273         0.647774
 H        -2.332069         1.828637         1.240372
 H        -2.660683         1.587141        -0.498076
 H        -3.336933        -2.239355         1.690183
 H        -4.201166        -3.032569         0.320711
 H        -1.895426        -2.923026        -1.054373
