19
Iteration:  3020
 C         1.031611        -0.901725        -0.871096
 C        -0.108837        -0.627352         0.032322
 C        -1.262330        -0.466544         0.447598
 C        -2.421297         0.027283         0.984742
 C        -2.848458         1.396920         0.492594
 O        -3.626832        -0.916276         0.215492
 C        -3.279518        -2.245624         0.754180
 C        -2.413789        -3.116406        -0.256587
 O        -1.770300        -4.120137         0.025634
 H         1.450029        -1.983498        -0.807211
 H         0.618721        -0.544528        -1.913532
 H         1.906403        -0.262151        -0.717682
 H        -2.497942        -0.186504         2.089286
 H        -3.743868         1.792194         0.971224
 H        -2.009348         2.174219         0.474730
 H        -3.123470         1.163079        -0.494576
 H        -2.575948        -2.153618         1.607706
 H        -4.254209        -2.694383         1.053469
 H        -2.621166        -2.722876        -1.204131
