19
Iteration:  3160charge 0 multiplicity 1
 C         1.127464        -1.110807        -0.588584
 C        -0.280346        -0.797010        -0.309204
 C        -1.307412        -0.375286         0.224458
 C        -2.492722         0.044286         0.884510
 C        -3.039807         1.539657         0.651698
 O        -3.463779        -0.894697         0.390310
 C        -3.260400        -2.308076         0.772309
 C        -2.450455        -3.077313        -0.305716
 O        -1.657393        -4.009996        -0.107877
 H         1.603016        -0.212294        -0.909840
 H         1.762384        -1.600366         0.205815
 H         1.299589        -1.871636        -1.389575
 H        -2.319112        -0.211750         1.970042
 H        -3.685124         1.778139         1.521219
 H        -2.200951         2.309820         0.773873
 H        -3.628793         1.675139        -0.205699
 H        -2.629928        -2.417960         1.743629
 H        -4.344364        -2.512997         1.029951
 H        -2.308852        -2.644485        -1.305766
