19
Iteration:  2166
 C         0.868566        -1.396725        -0.621238
 C        -0.295271        -0.819202        -0.153416
 C        -1.334712        -0.163731         0.090678
 C        -2.641977         0.013310         0.520642
 C        -3.099830         1.514370         0.391462
 O        -3.665277        -1.038570         0.071037
 C        -3.374735        -2.357108         0.738999
 C        -2.027156        -2.914019         0.106832
 O        -1.174731        -3.756677         0.509540
 H         0.557960        -2.447331        -0.814506
 H         1.183044        -1.044191        -1.597131
 H         1.596256        -1.304823         0.208807
 H        -2.604265        -0.198551         1.608188
 H        -4.215745         1.657421         0.566658
 H        -2.607529         2.037522         1.176957
 H        -2.869404         2.065709        -0.624689
 H        -3.184796        -2.325056         1.838788
 H        -4.352235        -2.827191         0.463096
 H        -2.018087        -2.599723        -1.080350
