19
Iteration:   872charge 0 multiplicity 1
 C         1.479558        -0.352406        -0.119053
 C         0.069489         0.070653         0.007420
 C        -1.128350         0.390933         0.085246
 C        -2.618333         0.142533         0.325414
 C        -3.478657         1.025839        -0.637334
 O        -2.904407        -1.257147        -0.024026
 C        -2.653574        -2.259662         1.038776
 C        -2.494771        -3.675345         0.343793
 O        -2.942123        -4.746161         0.693665
 H         2.086192         0.142381         0.632912
 H         1.649858        -1.417297        -0.089716
 H         1.845759        -0.030130        -1.153531
 H        -2.915841         0.398821         1.365967
 H        -4.211600         1.511548        -0.063714
 H        -2.793598         1.728858        -1.147323
 H        -4.029638         0.429718        -1.449715
 H        -1.653795        -2.117677         1.399916
 H        -3.402063        -2.390536         1.797157
 H        -1.988246        -3.530731        -0.605992
