19
Iteration:  4796
 C         1.849755        -0.033377         0.456847
 C         0.456943        -0.364713         0.697123
 C        -0.786974        -0.445338         0.767629
 C        -2.256729        -0.442403         1.030595
 C        -2.738820         0.991540         1.101298
 O        -3.040021        -0.995434        -0.021925
 C        -2.808343        -2.397039         0.149679
 C        -3.771905        -3.126354        -0.850217
 O        -3.473175        -4.178030        -1.398000
 H         1.709252         0.353261        -0.546314
 H         2.465403         0.541110         1.076509
 H         2.481666        -0.931104         0.327570
 H        -2.561143        -0.918935         1.962028
 H        -2.355296         1.582168         1.963973
 H        -2.546982         1.660125         0.218312
 H        -3.810074         0.919461         1.300441
 H        -1.753725        -2.715376         0.073701
 H        -3.101132        -2.701113         1.187440
 H        -4.516991        -2.411645        -1.219854
