19
Iteration:  4583charge 0 multiplicity 1
 C         1.478247        -0.635701        -0.006594
 C         0.164924        -0.483846         0.697742
 C        -1.005561        -0.288562         1.022615
 C        -2.398827        -0.090821         1.235538
 C        -2.998276         1.334096         0.903774
 O        -2.985941        -1.017537         0.131302
 C        -2.517020        -2.430647         0.247777
 C        -2.869185        -3.106544        -1.066524
 O        -3.464737        -4.172511        -1.155968
 H         1.072271        -1.216518        -0.905214
 H         1.813430         0.349083        -0.278245
 H         2.187365        -1.311774         0.521602
 H        -2.731552        -0.431185         2.322222
 H        -2.288215         2.044212         1.527629
 H        -2.795381         1.536367        -0.149456
 H        -4.061180         1.224417         1.236144
 H        -1.469486        -2.508022         0.411791
 H        -3.023797        -2.906593         1.134284
 H        -2.616873        -2.517014        -1.954269
