19
Iteration:   763charge 0 multiplicity 1
 C         1.482483         0.033717        -0.052208
 C         0.027462        -0.260523         0.111695
 C        -1.155325         0.026242        -0.121865
 C        -2.520177         0.108684         0.303232
 C        -3.363939         0.909827        -0.644696
 O        -3.124437        -1.211959         0.198019
 C        -2.314240        -2.315215         0.899766
 C        -2.679965        -3.569868         0.239331
 O        -3.058443        -4.569439         0.755027
 H         1.983620        -0.805538        -0.454800
 H         1.580907         0.744100        -0.824050
 H         2.010709         0.377911         0.871572
 H        -2.571539         0.367955         1.365519
 H        -4.297138         0.405400        -0.809000
 H        -3.505106         1.984784        -0.432649
 H        -2.852973         1.061890        -1.654139
 H        -1.190815        -2.124968         0.672509
 H        -2.465127        -2.301395         1.973429
 H        -2.352508        -3.625843        -0.838876
