19
Iteration:  2408charge 0 multiplicity 1
 C         1.356260        -0.308293        -0.610615
 C        -0.042428        -0.180110        -0.379935
 C        -1.118362        -0.355542         0.193365
 C        -2.420314        -0.106533         0.636992
 C        -2.786915         1.354704         0.216038
 O        -3.397070        -1.056537         0.215335
 C        -3.483900        -2.342312         0.826325
 C        -2.574417        -3.422487         0.055872
 O        -2.247746        -4.486791         0.485645
 H         1.554799        -0.955727        -1.570860
 H         1.761252         0.690950        -0.944550
 H         1.863568        -0.609768         0.313349
 H        -2.478430        -0.165512         1.764642
 H        -3.558250         1.697328         0.930825
 H        -1.784428         1.954318         0.156068
 H        -3.179328         1.354108        -0.780906
 H        -3.106137        -2.482099         1.851343
 H        -4.532720        -2.644057         0.613069
 H        -2.230513        -3.037615        -0.878785
