19
Iteration:   180charge 0 multiplicity 1
 C         1.635223         0.520369        -0.289144
 C         0.207621         0.238809         0.051448
 C        -0.930880        -0.160517         0.250206
 C        -2.425975        -0.068488         0.154854
 C        -3.001165         0.627254        -1.164815
 O        -3.015278        -1.433625        -0.007150
 C        -2.484286        -2.375651         0.901532
 C        -3.508355        -3.489859         0.864807
 O        -3.121290        -4.634981         1.033434
 H         2.089065        -0.079995        -1.073458
 H         1.724094         1.544414        -0.647323
 H         2.292252         0.369463         0.555008
 H        -2.841778         0.415683         1.023413
 H        -2.225513         0.934424        -1.824349
 H        -3.558511        -0.151633        -1.770908
 H        -3.708842         1.427414        -0.912788
 H        -1.555371        -2.842317         0.510974
 H        -2.192844        -1.954407         1.886246
 H        -4.606914        -3.298296         0.559374
