19
Iteration:  3307
 C         1.089106        -1.109043        -0.599475
 C        -0.131086        -0.538452         0.066054
 C        -1.274919        -0.315269         0.475095
 C        -2.535028         0.058553         0.918231
 C        -2.934011         1.446736         0.394843
 O        -3.633851        -1.021491         0.523771
 C        -3.087473        -2.329740         0.739721
 C        -2.347429        -2.997438        -0.338203
 O        -1.926247        -4.119562        -0.382674
 H         1.306928        -2.230376        -0.467849
 H         1.107177        -0.961270        -1.678044
 H         1.941561        -0.490521        -0.278685
 H        -2.382005         0.182682         2.017529
 H        -2.057520         1.823835        -0.135318
 H        -3.755707         1.444583        -0.340470
 H        -3.213815         2.169890         1.150499
 H        -2.387919        -2.078203         1.603317
 H        -3.814802        -3.023821         1.147668
 H        -1.982331        -2.366928        -1.235640
