19
Iteration:   794charge 0 multiplicity 1
 C         1.515458        -0.114102         0.081842
 C         0.026868        -0.334675        -0.223398
 C        -1.127569         0.094645         0.015362
 C        -2.542675         0.088001         0.163950
 C        -3.592644         0.975922        -0.587882
 O        -3.024218        -1.276111         0.170465
 C        -2.266091        -2.275795         0.990782
 C        -2.547643        -3.513851         0.199345
 O        -3.071110        -4.478471         0.738004
 H         1.940680        -0.957577         0.603273
 H         2.055191        -0.056872        -0.835447
 H         1.641754         0.797707         0.741978
 H        -2.680347         0.442873         1.201683
 H        -4.613790         0.651000        -0.448445
 H        -3.637336         1.977870        -0.114246
 H        -3.460759         1.016620        -1.644802
 H        -1.261943        -2.098113         1.126768
 H        -2.705444        -2.404192         1.944490
 H        -2.201470        -3.559121        -0.863114
