19
Iteration:  2638charge 0 multiplicity 1
 C         1.438466        -0.358266        -0.527461
 C         0.008402        -0.426897        -0.264022
 C        -1.094480        -0.015298         0.236629
 C        -2.432324         0.144979         0.789685
 C        -3.204221         1.053967        -0.132183
 O        -3.275161        -1.034527         0.813673
 C        -2.613285        -2.315435         1.022590
 C        -2.534054        -3.398589        -0.121210
 O        -2.994431        -4.513914        -0.141090
 H         1.828669         0.119704        -1.547641
 H         1.747510         0.364995         0.307374
 H         1.946128        -1.314996        -0.411862
 H        -2.364333         0.610794         1.811660
 H        -4.304534         0.792703        -0.023988
 H        -3.104490         2.094184         0.081257
 H        -2.904548         0.929875        -1.247192
 H        -1.461214        -2.219843         1.217614
 H        -2.954410        -2.911178         1.919123
 H        -1.811075        -3.119742        -0.987684
