19
Iteration:  4909
 C         1.816292        -0.111740         0.430195
 C         0.468922        -0.274893         0.818667
 C        -0.732848        -0.190691         0.936517
 C        -2.243938        -0.448730         1.095435
 C        -3.019080         0.847653         1.151830
 O        -2.747042        -1.093029        -0.037543
 C        -2.539707        -2.529002        -0.089394
 C        -3.489754        -3.006772        -1.173799
 O        -4.027461        -4.084243        -1.139598
 H         2.587101        -0.757506         0.837821
 H         1.856663        -0.200909        -0.701747
 H         2.013043         0.955591         0.644465
 H        -2.490766        -1.081593         2.019656
 H        -2.473930         1.721695         1.540784
 H        -3.026502         1.088516         0.077907
 H        -3.979333         0.554943         1.673768
 H        -1.432918        -2.635193        -0.212316
 H        -2.868630        -3.078131         0.884441
 H        -3.790946        -2.362448        -2.088141
