19
Iteration:  1057
 C         1.648989        -0.044086        -0.079064
 C         0.170738         0.034096         0.070119
 C        -1.036249         0.024216        -0.125023
 C        -2.468540        -0.014488         0.316140
 C        -3.227980         1.054089        -0.560834
 O        -3.157895        -1.303323         0.044094
 C        -3.081821        -2.313518         1.097196
 C        -3.182753        -3.662733         0.328984
 O        -2.367098        -4.569766         0.575018
 H         2.158689        -0.969478         0.223771
 H         1.983210         0.115908        -1.104917
 H         2.021018         0.882258         0.464073
 H        -2.448403         0.196370         1.376713
 H        -4.262523         1.008207        -0.414336
 H        -2.811661         2.039712        -0.471200
 H        -3.077625         0.861040        -1.625943
 H        -2.110617        -2.353514         1.611777
 H        -3.812044        -2.143540         1.901091
 H        -3.950781        -3.821608        -0.511824
