19
Iteration:  3067
 C         1.071563        -0.904827        -0.849045
 C        -0.145826        -0.757529        -0.191251
 C        -1.126632        -0.345170         0.459580
 C        -2.474113        -0.072290         1.035900
 C        -2.759561         1.355495         0.418362
 O        -3.563346        -0.957377         0.445689
 C        -3.477466        -2.396220         0.715297
 C        -2.543238        -3.061016        -0.279427
 O        -1.696905        -3.887023         0.030191
 H         1.878937        -1.155164        -0.042378
 H         1.105855        -1.509136        -1.744990
 H         1.441797         0.046390        -1.310303
 H        -2.634071         0.031582         2.139649
 H        -3.867006         1.257026         0.197775
 H        -2.549641         2.236935         0.981096
 H        -2.359198         1.402823        -0.681878
 H        -3.065654        -2.522522         1.725391
 H        -4.563193        -2.838140         0.521742
 H        -2.592333        -2.459271        -1.184130
