19
Iteration:   275charge 0 multiplicity 1
 C         1.585218         0.372742         0.057573
 C         0.205644         0.052789         0.048092
 C        -1.008578        -0.088095        -0.087804
 C        -2.434886        -0.155831         0.130398
 C        -3.271218         0.724984        -0.798603
 O        -2.985001        -1.455842        -0.289013
 C        -2.328137        -2.337594         0.512872
 C        -3.319606        -3.443771         0.762016
 O        -3.100698        -4.488396         1.325708
 H         2.228828         0.250629         1.012838
 H         2.061459        -0.146644        -0.804413
 H         1.664105         1.424408        -0.160379
 H        -2.652732        -0.184390         1.159176
 H        -4.333683         0.954981        -0.503907
 H        -2.757404         1.707251        -0.777822
 H        -3.159869         0.391546        -1.808577
 H        -1.447186        -2.723097        -0.021174
 H        -1.849786        -1.955502         1.406144
 H        -4.385974        -3.342233         0.359080
