19
Iteration:  1993
 C         1.307373        -0.807007        -0.286096
 C        -0.082892        -0.442101        -0.098841
 C        -1.236727        -0.085409         0.081038
 C        -2.579761         0.239947         0.580060
 C        -3.365063         1.186236        -0.493393
 O        -3.379055        -0.988436         0.852411
 C        -2.881838        -2.288230         1.177984
 C        -2.454719        -3.239190        -0.027734
 O        -2.044958        -4.426548        -0.119888
 H         1.951060        -0.044345         0.276897
 H         1.457862        -1.800879         0.115747
 H         1.497301        -0.667527        -1.354472
 H        -2.388278         0.671141         1.577598
 H        -4.127447         1.842029        -0.069970
 H        -2.653380         1.856085        -0.831013
 H        -3.745956         0.591362        -1.338562
 H        -2.238760        -2.230721         2.033158
 H        -3.728807        -2.891551         1.488314
 H        -2.554803        -2.665020        -0.884310
