19
Iteration:  4200
 C         1.236805        -1.268342        -0.111614
 C         0.060257        -0.586763         0.373643
 C        -1.092440        -0.138440         0.400991
 C        -2.338269        -0.033305         1.135631
 C        -3.071419         1.328219         0.910604
 O        -3.305802        -0.922933         0.552452
 C        -3.163636        -2.311531         0.503509
 C        -2.447621        -2.840709        -0.825929
 O        -2.526964        -4.054346        -1.111720
 H         2.160435        -0.841890         0.334430
 H         1.261371        -2.356828         0.129564
 H         1.471448        -1.177370        -1.237028
 H        -2.309221        -0.468965         2.062279
 H        -2.923495         2.171165         1.578722
 H        -2.677455         1.826972        -0.030703
 H        -4.139187         1.107401         0.687165
 H        -2.603890        -2.685345         1.372887
 H        -4.185861        -2.838011         0.644348
 H        -1.784661        -2.077851        -1.347012
