19
Iteration:  2400
 C         1.351557        -0.300009        -0.654523
 C        -0.035091        -0.119284        -0.285187
 C        -1.106791        -0.409299         0.197844
 C        -2.418479        -0.158195         0.632452
 C        -2.764154         1.285342         0.218367
 O        -3.486106        -1.030169         0.185605
 C        -3.469849        -2.317975         0.764326
 C        -2.562702        -3.370646         0.087543
 O        -2.208636        -4.478103         0.504018
 H         1.375031        -0.947487        -1.569600
 H         1.930416         0.593135        -0.869838
 H         1.871045        -0.917204         0.050352
 H        -2.332556        -0.290330         1.735669
 H        -3.424318         1.777905         0.966966
 H        -1.883901         1.899002         0.179176
 H        -3.242118         1.274892        -0.772068
 H        -3.186069        -2.220334         1.800535
 H        -4.521790        -2.541601         0.842525
 H        -2.252842        -3.031026        -1.000675
