19
Iteration:  2080
 C         0.972058        -1.186692        -0.541343
 C        -0.174502        -0.550999        -0.019907
 C        -1.302941        -0.113590         0.198529
 C        -2.584014         0.148100         0.658736
 C        -3.114305         1.294787        -0.221255
 O        -3.537111        -1.023496         0.538401
 C        -3.259408        -2.375343         1.003346
 C        -2.258936        -3.079403         0.012097
 O        -1.475074        -3.972481         0.117850
 H         1.083717        -1.103645        -1.646375
 H         1.863560        -0.835701        -0.064492
 H         0.998573        -2.261202        -0.420730
 H        -2.675187         0.432014         1.720425
 H        -4.080934         1.526370         0.235637
 H        -2.427921         2.066049        -0.129602
 H        -3.213603         1.053056        -1.327720
 H        -3.068161        -2.609003         2.078213
 H        -4.262530        -2.840503         0.784283
 H        -2.180715        -2.325140        -0.878588
