19
Iteration:   969
 C         1.553392         0.049450        -0.325306
 C         0.028086         0.021437         0.041644
 C        -1.158638        -0.138645         0.288728
 C        -2.601215         0.068975         0.352212
 C        -2.862388         1.245839        -0.687430
 O        -3.384525        -1.143988         0.036773
 C        -3.031069        -2.412245         0.930302
 C        -2.682012        -3.773610         0.205717
 O        -2.564459        -4.771314         0.872890
 H         1.554707         0.203652        -1.403462
 H         2.132531         0.847672         0.103621
 H         2.024798        -0.939080         0.005428
 H        -2.970919         0.459918         1.314343
 H        -3.855511         1.397404        -0.803800
 H        -2.350603         2.036707        -0.192755
 H        -2.232346         1.168075        -1.573606
 H        -2.150943        -2.171554         1.571154
 H        -3.928258        -2.587517         1.572757
 H        -2.853730        -3.734733        -0.876967
