19
Iteration:   430charge 0 multiplicity 1
 C         1.482201         0.239320         0.020926
 C         0.060549         0.066299         0.183090
 C        -1.133283         0.097690         0.254323
 C        -2.540709        -0.145814         0.149348
 C        -3.347731         0.909398        -0.685186
 O        -2.782577        -1.476963        -0.378606
 C        -2.090011        -2.491518         0.323295
 C        -3.071144        -3.766976         0.348954
 O        -3.231974        -4.250580         1.474939
 H         1.737059         0.452439        -1.057058
 H         1.792709         1.139160         0.578003
 H         2.071214        -0.625058         0.358665
 H        -3.055240        -0.140577         1.153102
 H        -4.382237         0.603959        -0.667221
 H        -3.254962         1.884953        -0.148086
 H        -2.946954         0.950518        -1.717840
 H        -1.101709        -2.652769        -0.101589
 H        -1.969397        -2.154553         1.338805
 H        -3.835047        -3.937103        -0.467456
