19
Iteration:  2377
 C         1.423916        -0.354666        -0.824389
 C         0.139184        -0.260949        -0.029935
 C        -1.102586        -0.490898         0.172361
 C        -2.520780        -0.216829         0.633697
 C        -2.868014         1.204757         0.265433
 O        -3.597673        -1.048815         0.120701
 C        -3.460582        -2.313215         0.759981
 C        -2.495441        -3.195535         0.022722
 O        -2.175169        -4.258767         0.608735
 H         1.238470        -0.285733        -1.964318
 H         2.082557         0.505155        -0.639371
 H         1.971437        -1.265280        -0.695936
 H        -2.497362        -0.477782         1.717752
 H        -3.599997         1.663901         0.959598
 H        -1.942070         1.896441         0.267847
 H        -3.247139         1.134860        -0.733904
 H        -3.186013        -2.355410         1.794061
 H        -4.499085        -2.617855         0.673654
 H        -2.192504        -2.959639        -1.113605
