19
Iteration:  2616
 C         1.445824        -0.459822        -0.537197
 C        -0.004610        -0.314541        -0.171375
 C        -1.096094         0.010451         0.237504
 C        -2.529647         0.089914         0.740482
 C        -3.258835         1.180196        -0.129009
 O        -3.245108        -1.202635         0.693883
 C        -2.511994        -2.387602         1.077941
 C        -2.466371        -3.349126        -0.148862
 O        -3.018628        -4.399517        -0.036292
 H         1.734341         0.347258        -1.332244
 H         2.234600        -0.251301         0.245723
 H         1.631952        -1.378258        -1.070829
 H        -2.506925         0.389148         1.820752
 H        -4.381459         1.150646        -0.263942
 H        -2.989617         2.172372         0.160740
 H        -2.819718         1.089805        -1.187256
 H        -1.423329        -2.306253         1.454247
 H        -3.064381        -2.994271         1.856502
 H        -2.007089        -3.033066        -1.107040
