19
Iteration:  4711charge 0 multiplicity 1
 C         1.745129        -0.391425         0.430398
 C         0.364519        -0.294142         0.573634
 C        -0.837956        -0.285474         0.540937
 C        -2.264069        -0.290609         1.095079
 C        -2.821650         1.173286         1.058036
 O        -3.151829        -1.098074         0.263725
 C        -2.799391        -2.425063         0.142302
 C        -3.580920        -3.039197        -1.042003
 O        -3.274419        -4.190370        -1.256241
 H         2.202805        -0.066056         1.389875
 H         1.843468        -1.566802         0.642199
 H         2.294434        -0.083591        -0.460439
 H        -2.278320        -0.744577         2.178860
 H        -2.086537         1.816993         1.604653
 H        -2.928446         1.421632         0.014794
 H        -3.782335         1.244697         1.544817
 H        -1.720248        -2.457723        -0.125655
 H        -2.959180        -3.060859         1.052771
 H        -4.307244        -2.459120        -1.674164
