19
Iteration:  3428charge 0 multiplicity 1
 C         1.349713        -0.727934        -0.318193
 C        -0.083944        -0.609166        -0.238404
 C        -1.229324        -0.544911         0.154235
 C        -2.455669        -0.062687         0.828660
 C        -2.776299         1.345674         0.473641
 O        -3.630976        -0.995932         0.629130
 C        -3.188784        -2.370481         0.975620
 C        -2.691516        -3.029003        -0.353457
 O        -2.029788        -4.020367        -0.506633
 H         1.782445         0.338288        -0.407752
 H         1.624234        -1.105716         0.702980
 H         1.591955        -1.415144        -1.122519
 H        -2.252187        -0.260412         1.890087
 H        -2.184874         2.115962         0.997688
 H        -2.537103         1.612945        -0.612945
 H        -3.810987         1.563692         0.524701
 H        -2.446650        -2.337281         1.862146
 H        -4.100325        -2.934161         1.231306
 H        -3.035061        -2.540271        -1.388724
