19
Iteration:  3044
 C         1.057806        -0.832962        -0.887826
 C        -0.223930        -0.808967        -0.074838
 C        -1.156639        -0.486138         0.581460
 C        -2.515150        -0.056895         0.875936
 C        -2.884005         1.402589         0.418131
 O        -3.476173        -0.922672         0.394807
 C        -3.286713        -2.283061         0.726983
 C        -2.509524        -3.082818        -0.323996
 O        -1.744227        -3.974069         0.067755
 H         1.760250        -1.624464        -0.380146
 H         0.834889        -1.028972        -1.977345
 H         1.636774         0.089135        -0.911660
 H        -2.566161         0.023321         2.009966
 H        -3.881917         1.819595         0.695496
 H        -2.061937         1.919809         0.944226
 H        -2.711072         1.564627        -0.686638
 H        -2.871211        -2.468012         1.738457
 H        -4.406778        -2.564565         0.578043
 H        -2.820615        -2.805978        -1.273689
