19
Iteration:  1657charge 0 multiplicity 1
 C         1.606696         0.402365        -0.167758
 C         0.184258         0.205275        -0.086189
 C        -0.938058        -0.024028         0.304774
 C        -2.397495        -0.216340         0.519693
 C        -3.261172         0.918997        -0.094680
 O        -2.911736        -1.385033        -0.159493
 C        -2.210639        -2.599575         0.184656
 C        -3.349306        -3.566974         0.230440
 O        -3.332012        -4.505752         0.941990
 H         2.069188         0.173282         0.853334
 H         2.101208        -0.313683        -0.885289
 H         1.934172         1.402311        -0.514615
 H        -2.660315        -0.343849         1.585351
 H        -3.235784         1.799732         0.589446
 H        -3.106975         1.099182        -1.187751
 H        -4.290275         0.552019         0.060919
 H        -1.379374        -2.745812        -0.539758
 H        -1.733357        -2.722395         1.210486
 H        -4.274825        -3.306730        -0.450530
