19
Iteration:   894
 C         1.386996        -0.180053        -0.244731
 C         0.016635        -0.197052         0.050431
 C        -1.092976         0.161530         0.366772
 C        -2.566710         0.117276         0.357038
 C        -3.372186         0.944630        -0.638237
 O        -2.894820        -1.216591        -0.104378
 C        -2.732068        -2.184245         0.937061
 C        -2.562652        -3.568563         0.283545
 O        -2.843479        -4.623188         0.749592
 H         1.878348         0.690569         0.178398
 H         1.773355        -1.058099         0.265206
 H         1.616426        -0.360463        -1.339546
 H        -3.078221         0.268601         1.331758
 H        -4.169756         1.392573        -0.082474
 H        -2.826452         1.637215        -1.284224
 H        -3.910675         0.186516        -1.308883
 H        -1.740444        -2.081288         1.477390
 H        -3.563246        -2.140810         1.671723
 H        -1.938664        -3.438233        -0.641392
