19
Iteration:  2140
 C         1.064373        -1.403161        -0.608533
 C        -0.300352        -0.905207        -0.254731
 C        -1.368769        -0.405178         0.155052
 C        -2.725228        -0.007313         0.715673
 C        -3.260180         1.389042         0.266992
 O        -3.584373        -0.954438         0.170987
 C        -3.143480        -2.176691         0.763750
 C        -2.075653        -2.856926        -0.057592
 O        -1.356092        -3.646734         0.495930
 H         0.922875        -2.244153        -1.267542
 H         1.663166        -0.659485        -1.204383
 H         1.507251        -1.667824         0.376020
 H        -2.709416        -0.108387         1.811202
 H        -4.330154         1.316505         0.063852
 H        -3.164511         2.195532         1.071095
 H        -2.816765         1.715534        -0.634485
 H        -2.800477        -2.152401         1.795856
 H        -4.043339        -2.725030         0.685806
 H        -2.290720        -2.849522        -1.209779
