19
Iteration:  2817charge 0 multiplicity 1
 C         1.315023        -0.641146        -0.743073
 C         0.060075        -0.323196        -0.058642
 C        -1.127407        -0.073439         0.322531
 C        -2.495331         0.080240         0.876646
 C        -3.082371         1.269349         0.115017
 O        -3.326045        -1.126865         0.522536
 C        -2.939287        -2.341208         1.135996
 C        -2.745905        -3.267272        -0.163630
 O        -2.376095        -4.430607        -0.195967
 H         2.218106        -0.292558        -0.209429
 H         1.565756        -1.645274        -1.018172
 H         1.362083        -0.198640        -1.813404
 H        -2.373565         0.241511         1.963488
 H        -4.128174         1.450129         0.345682
 H        -2.612144         2.272206         0.297124
 H        -2.943176         1.072648        -0.909463
 H        -1.946873        -2.197239         1.589942
 H        -3.675740        -2.734606         1.788129
 H        -2.900427        -2.703157        -1.152314
