19
Iteration:  2486
 C         1.522570        -0.440085        -0.676356
 C         0.185266        -0.074989        -0.155415
 C        -1.067668        -0.140836         0.141203
 C        -2.520308        -0.049713         0.566588
 C        -3.187153         1.300649         0.256875
 O        -3.359219        -1.209092         0.164043
 C        -2.954628        -2.296706         1.057798
 C        -2.495409        -3.371013         0.036191
 O        -2.749579        -4.528585         0.268193
 H         2.053679        -1.138519         0.084652
 H         1.453682        -0.821282        -1.713954
 H         2.040655         0.495143        -0.807591
 H        -2.524801        -0.123703         1.671439
 H        -4.289542         1.288077         0.517702
 H        -2.637030         1.912324         0.959815
 H        -3.053210         1.668529        -0.798567
 H        -2.064935        -2.175189         1.695937
 H        -3.836852        -2.673169         1.599889
 H        -2.053453        -2.975685        -0.931117
