19
Iteration:   830
 C         1.420425        -0.312845         0.069343
 C         0.083774         0.285049        -0.122607
 C        -1.129852         0.134447        -0.220066
 C        -2.526568         0.035201         0.279459
 C        -3.480960         0.882962        -0.508756
 O        -3.052736        -1.251635         0.099576
 C        -2.429625        -2.246990         1.016966
 C        -2.486789        -3.573568         0.285309
 O        -3.061250        -4.597382         0.685800
 H         1.372584        -0.876195         0.997247
 H         1.489539        -1.081625        -0.699934
 H         2.348290         0.228301         0.009753
 H        -2.408085         0.347513         1.318207
 H        -4.403972         0.754822         0.059292
 H        -2.996557         1.829279        -0.714774
 H        -3.597968         0.454613        -1.605579
 H        -1.372700        -1.980603         1.145317
 H        -3.016017        -2.194024         1.916010
 H        -1.860111        -3.558371        -0.661863
