19
Iteration:  3202charge 0 multiplicity 1
 C         0.990608        -1.302020        -0.627784
 C        -0.032720        -0.466002        -0.080973
 C        -1.155587        -0.088277         0.289173
 C        -2.540503         0.010247         0.837430
 C        -3.113482         1.338857         0.657611
 O        -3.490847        -0.921850         0.408732
 C        -3.126215        -2.279766         0.681303
 C        -2.427160        -3.064899        -0.394733
 O        -1.800601        -4.065702        -0.100082
 H         1.231349        -1.123608        -1.638477
 H         1.863996        -1.072153        -0.025999
 H         0.630058        -2.401641        -0.592689
 H        -2.360643        -0.044696         1.937626
 H        -3.204705         1.969059         1.567383
 H        -2.532562         1.897637        -0.163993
 H        -4.117827         1.237726         0.309369
 H        -2.493858        -2.166902         1.573636
 H        -4.015090        -2.829660         1.147203
 H        -2.308379        -2.631627        -1.484479
