19
Iteration:  2421
 C         1.437037        -0.249780        -0.607108
 C        -0.039818        -0.360994        -0.469172
 C        -1.095436        -0.266287         0.137346
 C        -2.464964         0.003134         0.741302
 C        -2.879773         1.403331         0.213369
 O        -3.320554        -1.105669         0.237620
 C        -3.414727        -2.438524         0.830559
 C        -2.591911        -3.414105         0.046532
 O        -2.331897        -4.513471         0.461685
 H         1.979568        -1.110563        -1.136351
 H         1.716967         0.724832        -1.045498
 H         1.863631        -0.312548         0.375540
 H        -2.400030         0.062449         1.863069
 H        -3.728664         1.902181         0.747418
 H        -2.046893         2.074878         0.438200
 H        -3.072543         1.402371        -0.873042
 H        -3.356856        -2.399319         1.884336
 H        -4.463211        -2.736725         0.721255
 H        -2.305047        -3.047273        -0.955360
