19
Iteration:  4233
 C         1.353633        -1.186720        -0.064287
 C         0.037447        -0.586352         0.164528
 C        -1.003067        -0.152322         0.695469
 C        -2.427769        -0.025915         1.055824
 C        -3.023314         1.453953         0.989810
 O        -3.351772        -0.982975         0.312201
 C        -3.123707        -2.386307         0.581931
 C        -2.471857        -2.933816        -0.770207
 O        -2.636932        -4.067058        -1.153595
 H         2.084920        -0.350487        -0.153631
 H         1.689283        -1.704123         0.844053
 H         1.457935        -1.875261        -0.975437
 H        -2.467863        -0.447156         2.023888
 H        -2.573397         2.072720         1.776141
 H        -2.895479         1.824722        -0.072342
 H        -4.050734         1.333048         1.306689
 H        -2.394060        -2.501859         1.344911
 H        -4.102064        -2.752037         0.717532
 H        -1.882858        -2.183311        -1.311341
