19
Iteration:   530charge 0 multiplicity 1
 C         1.638039         0.619461         0.015626
 C         0.258604         0.227308         0.046303
 C        -0.897887        -0.128794         0.102060
 C        -2.323520        -0.074263         0.153238
 C        -3.353842         0.723354        -0.810909
 O        -2.919590        -1.424009        -0.068618
 C        -2.391223        -2.385366         0.752547
 C        -3.305866        -3.659744         0.452220
 O        -3.289172        -4.712696         1.026437
 H         2.226440        -0.113620         0.517552
 H         2.066865         0.727506        -0.972529
 H         1.688768         1.610353         0.384023
 H        -2.679868         0.300346         1.158371
 H        -4.161682         0.902768        -0.137327
 H        -2.868204         1.560262        -1.269670
 H        -3.566728         0.065457        -1.662666
 H        -1.235279        -2.417586         0.600677
 H        -2.453308        -2.222513         1.807281
 H        -4.029778        -3.325204        -0.343967
