19
Iteration:  3825
 C         1.292731        -1.025213        -0.608075
 C        -0.107393        -0.721940         0.003801
 C        -1.157817        -0.435176         0.594294
 C        -2.519463        -0.110892         1.069300
 C        -2.903908         1.328401         0.895698
 O        -3.532904        -0.826918         0.354721
 C        -3.361836        -2.235463         0.552092
 C        -2.440600        -2.907842        -0.519900
 O        -1.995904        -4.032997        -0.513243
 H         1.325712        -2.129732        -0.461020
 H         1.509273        -0.673753        -1.620675
 H         2.195153        -0.600907        -0.058852
 H        -2.499797        -0.352174         2.128332
 H        -2.595121         2.051330         1.676481
 H        -2.426001         1.709698        -0.078476
 H        -3.959030         1.342686         0.690289
 H        -2.936222        -2.537611         1.541136
 H        -4.284330        -2.694079         0.203544
 H        -2.333516        -2.253676        -1.425342
