19
Iteration:  4287charge 0 multiplicity 1
 C         1.429428        -0.813247        -0.117213
 C         0.106133        -0.662578         0.581541
 C        -1.045861        -0.289707         0.720385
 C        -2.465514        -0.119811         1.078752
 C        -2.832587         1.387655         0.929342
 O        -3.327586        -0.952343         0.281906
 C        -3.134549        -2.344751         0.331649
 C        -2.559072        -2.977262        -0.896340
 O        -2.810493        -4.139970        -1.013699
 H         1.244941        -0.465342        -1.157493
 H         2.251764        -0.291988         0.384268
 H         1.693534        -1.922499        -0.061283
 H        -2.465442        -0.454082         2.196853
 H        -1.878396         1.775933         1.252232
 H        -3.220653         1.568943        -0.079858
 H        -3.603989         1.693576         1.602298
 H        -2.476389        -2.757298         1.125189
 H        -4.102802        -2.693855         0.471876
 H        -2.072015        -2.339571        -1.676023
