19
Iteration:  2013charge 0 multiplicity 1
 C         1.215319        -0.848392        -0.375262
 C        -0.202954        -0.659021        -0.006181
 C        -1.254483        -0.139685         0.201702
 C        -2.645157         0.221832         0.612614
 C        -3.239412         1.139546        -0.403106
 O        -3.445256        -1.010768         0.707392
 C        -2.817362        -2.269540         1.086921
 C        -2.340003        -3.076462        -0.120501
 O        -1.998705        -4.263587         0.017813
 H         1.690171         0.112459        -0.319561
 H         1.590351        -1.585292         0.327510
 H         1.303765        -1.069051        -1.448730
 H        -2.582491         0.805915         1.541328
 H        -3.937715         1.845318         0.107202
 H        -2.566899         1.678155        -1.081854
 H        -3.857744         0.487260        -1.026965
 H        -2.014918        -2.150309         1.822461
 H        -3.582916        -2.914410         1.615171
 H        -2.370294        -2.446563        -1.159771
