19
Iteration:  4551charge 0 multiplicity 1
 C         1.510436        -0.624004         0.098115
 C         0.110146        -0.505602         0.465468
 C        -0.939042        -0.195652         0.987127
 C        -2.354441        -0.163005         1.119122
 C        -2.903885         1.157968         0.930355
 O        -3.073313        -0.974390         0.114768
 C        -2.729965        -2.384148         0.313238
 C        -2.875421        -3.056330        -0.978544
 O        -3.355489        -4.180747        -1.111027
 H         1.474372        -0.263918        -0.961384
 H         2.168663         0.111855         0.535902
 H         1.906247        -1.675258         0.144549
 H        -2.533827        -0.504611         2.195383
 H        -2.443621         1.827286         1.759196
 H        -2.713188         1.802373         0.104080
 H        -3.985328         1.065070         1.141491
 H        -1.712787        -2.373102         0.636417
 H        -3.468330        -2.964580         0.905711
 H        -2.518221        -2.497087        -1.860734
