19
Iteration:  3329charge 0 multiplicity 1
 C         1.230948        -0.971989        -0.557656
 C        -0.103599        -0.621251         0.045460
 C        -1.178221        -0.239184         0.437656
 C        -2.528659        -0.030872         0.898670
 C        -2.960758         1.348568         0.352715
 O        -3.491160        -0.954296         0.569206
 C        -3.236752        -2.392663         0.874492
 C        -2.517268        -3.011385        -0.367979
 O        -1.903648        -4.050754        -0.434484
 H         1.600029        -1.898885        -0.033362
 H         0.913570        -1.402163        -1.491844
 H         1.882732        -0.121033        -0.651547
 H        -2.434622         0.096945         2.007075
 H        -2.250414         1.813653        -0.334743
 H        -3.820622         1.161750        -0.320465
 H        -3.286507         2.155062         0.966988
 H        -2.778728        -2.678623         1.898429
 H        -4.273677        -2.742214         0.838180
 H        -2.538452        -2.475224        -1.317313
