19
Iteration:  4685
 C         1.753683        -0.474701         0.321150
 C         0.352907        -0.471683         0.609116
 C        -0.851450        -0.252787         0.672691
 C        -2.331991        -0.164288         1.098169
 C        -2.990350         1.158455         0.972550
 O        -3.120515        -1.074350         0.297857
 C        -2.654605        -2.365205         0.205292
 C        -3.326702        -3.031034        -0.994105
 O        -3.405397        -4.203454        -1.314982
 H         2.268057        -0.656079         1.311234
 H         1.940512        -1.472428        -0.240896
 H         2.219326         0.376811        -0.255783
 H        -2.467879        -0.461794         2.196362
 H        -2.549824         1.705255         1.791574
 H        -2.817353         1.576635        -0.089638
 H        -4.076614         1.043634         1.181736
 H        -1.586731        -2.266713         0.068656
 H        -2.764317        -3.114274         1.063880
 H        -4.042514        -2.276007        -1.499291
