19
Iteration:  2738charge 0 multiplicity 1
 C         1.409351        -0.268296        -0.594460
 C         0.049331        -0.372782        -0.216736
 C        -1.009584        -0.258898         0.336251
 C        -2.388893         0.046115         0.703602
 C        -3.121408         1.123061        -0.136685
 O        -3.259620        -1.068330         0.886772
 C        -2.827863        -2.470667         1.009423
 C        -2.797961        -3.216792        -0.217218
 O        -2.679805        -4.438267        -0.103902
 H         2.230558        -1.071248        -0.477982
 H         1.518857         0.038678        -1.631653
 H         1.777442         0.516905         0.119474
 H        -2.203474         0.517794         1.707480
 H        -4.012362         1.442255         0.407410
 H        -2.530489         2.074893        -0.363036
 H        -3.623788         0.798997        -1.053409
 H        -2.049519        -2.678428         1.761473
 H        -3.673269        -2.961483         1.484178
 H        -3.012160        -2.772075        -1.157732
