19
Iteration:  1571
 C         1.655862         0.705324        -0.148407
 C         0.203371         0.357826        -0.066989
 C        -0.918374        -0.140776         0.224837
 C        -2.347956        -0.289826         0.533750
 C        -3.087319         0.869958        -0.102630
 O        -2.972216        -1.410998        -0.122238
 C        -2.208137        -2.581154         0.214187
 C        -3.272082        -3.702606         0.172203
 O        -3.632159        -4.575071         0.996549
 H         2.166559        -0.107207        -0.770131
 H         1.849320         1.702021        -0.670778
 H         2.061857         0.777950         0.878739
 H        -2.419486        -0.459323         1.639123
 H        -2.869721         0.744226        -1.155355
 H        -4.137706         0.562800        -0.027101
 H        -3.109139         1.768479         0.432266
 H        -1.562514        -2.800101        -0.657833
 H        -1.691507        -2.578984         1.201796
 H        -3.799797        -3.683336        -0.844112
