19
Iteration:   543charge 0 multiplicity 1
 C         1.657450         0.656081         0.024569
 C         0.250530         0.241214        -0.040878
 C        -0.909676        -0.173095        -0.002977
 C        -2.429750        -0.139545         0.140338
 C        -3.253175         0.722792        -0.808063
 O        -2.891383        -1.423644         0.012395
 C        -2.461516        -2.481213         0.895462
 C        -3.335383        -3.550405         0.449320
 O        -3.216822        -4.676218         0.941790
 H         2.202018         0.206771         0.832341
 H         2.152316         0.465643        -0.921956
 H         1.759841         1.772799         0.325465
 H        -2.510806         0.207713         1.208403
 H        -4.304778         0.864822        -0.396953
 H        -2.853881         1.722219        -0.958932
 H        -3.450045         0.244158        -1.732913
 H        -1.430345        -2.824471         0.820572
 H        -2.776067        -2.200458         1.907085
 H        -4.136213        -3.406607        -0.308400
