19
Iteration:  1724
 C         1.773925         0.157570        -0.235689
 C         0.269918         0.126564         0.090498
 C        -0.968736         0.110427         0.090175
 C        -2.391823        -0.066189         0.377792
 C        -3.351328         1.212732         0.036780
 O        -3.024060        -1.257354        -0.225367
 C        -2.604409        -2.509372         0.449484
 C        -3.328695        -3.777265         0.178461
 O        -2.997890        -4.754935         0.897935
 H         2.088718         1.195279        -0.022575
 H         2.218626        -0.638094         0.387148
 H         1.898566        -0.051250        -1.300766
 H        -2.388607        -0.083083         1.475193
 H        -4.333612         1.067416         0.549311
 H        -2.864150         2.120824         0.194104
 H        -3.692735         1.174100        -1.053547
 H        -1.575820        -2.749748         0.190035
 H        -2.592847        -2.345020         1.554325
 H        -4.049721        -3.773367        -0.657401
