19
Iteration:  2541
 C         1.308613        -0.469896        -0.615183
 C        -0.059522        -0.276712        -0.211034
 C        -0.988643         0.150113         0.391094
 C        -2.437663         0.207160         0.756633
 C        -3.339258         1.246779        -0.032235
 O        -2.972540        -1.103458         0.419449
 C        -2.725196        -2.396179         0.988433
 C        -2.427667        -3.525166        -0.048127
 O        -2.970023        -4.579688         0.069283
 H         2.036957         0.055644         0.087368
 H         1.437804        -1.571233        -0.610673
 H         1.595088        -0.121211        -1.598171
 H        -2.578620         0.395972         1.821772
 H        -4.213912         1.483224         0.617763
 H        -2.895204         2.175704        -0.248211
 H        -3.636434         0.806237        -1.045599
 H        -2.075519        -2.706501         1.857899
 H        -3.690972        -2.729360         1.424207
 H        -1.718404        -3.302316        -0.957061
