19
Iteration:   181charge 0 multiplicity 1
 C         1.642631         0.519666        -0.289584
 C         0.208197         0.249701         0.047077
 C        -0.935912        -0.150320         0.251122
 C        -2.429141        -0.080915         0.157459
 C        -2.990671         0.634948        -1.158747
 O        -3.023085        -1.435293        -0.007629
 C        -2.491000        -2.376224         0.892520
 C        -3.506173        -3.493576         0.865164
 O        -3.119370        -4.639098         1.039252
 H         2.093952        -0.083226        -1.048307
 H         1.739544         1.532061        -0.687602
 H         2.309238         0.368849         0.589056
 H        -2.811316         0.410254         1.008336
 H        -2.217036         0.894250        -1.856241
 H        -3.563208        -0.175225        -1.747766
 H        -3.718174         1.469223        -0.914415
 H        -1.566769        -2.822227         0.479548
 H        -2.204683        -1.992690         1.872511
 H        -4.620959        -3.280098         0.572527
