19
Iteration:  1367
 C         1.628930         0.381188        -0.373227
 C         0.321862         0.301559         0.146924
 C        -0.846216         0.166113         0.501390
 C        -2.390441        -0.040782         0.508691
 C        -3.261302         0.822731        -0.407479
 O        -2.816814        -1.325306        -0.032437
 C        -2.721015        -2.495330         0.790506
 C        -3.279203        -3.668006         0.139961
 O        -3.181792        -4.819202         0.545357
 H         2.481174         0.239317         0.268977
 H         1.853813        -0.323392        -1.239052
 H         1.779339         1.384157        -0.785828
 H        -2.863618         0.048049         1.513304
 H        -2.878868         1.753235        -0.775576
 H        -3.401405         0.264143        -1.325214
 H        -4.234088         0.733006         0.175861
 H        -1.786183        -2.752530         1.315635
 H        -3.401705        -2.311713         1.652964
 H        -3.851232        -3.556621        -0.755459
