19
Iteration:  4522
 C         1.714402        -0.644943         0.096710
 C         0.258256        -0.301094         0.444849
 C        -0.950029        -0.358034         0.739914
 C        -2.405835        -0.148625         1.168357
 C        -3.002153         1.277605         0.987065
 O        -3.051950        -0.969856         0.171558
 C        -2.996011        -2.383665         0.369328
 C        -2.995866        -3.105323        -0.928551
 O        -3.240227        -4.269510        -1.175494
 H         2.173793         0.042497        -0.581749
 H         2.426396        -0.663827         0.980456
 H         1.825948        -1.617453        -0.436653
 H        -2.506096        -0.418292         2.206592
 H        -2.715039         1.662750         1.929867
 H        -2.701509         1.973618         0.199687
 H        -4.079777         1.500318         1.074996
 H        -1.879571        -2.491596         0.738150
 H        -3.665567        -2.941132         1.042648
 H        -2.548904        -2.453233        -1.749837
