19
Iteration:  1777charge 0 multiplicity 1
 C         1.608772         0.054912        -0.210201
 C         0.123702         0.012351        -0.207102
 C        -1.058219        -0.068245         0.217484
 C        -2.531939        -0.017530         0.467560
 C        -3.219231         1.198326        -0.321931
 O        -3.058925        -1.293605         0.165999
 C        -2.415149        -2.355233         0.908086
 C        -3.126403        -3.607144         0.217417
 O        -2.994479        -4.794429         0.425800
 H         1.979879         0.874137        -0.884415
 H         2.028897         0.375384         0.716138
 H         1.982398        -0.908551        -0.494724
 H        -2.732709         0.366827         1.482373
 H        -4.339533         0.997562        -0.506343
 H        -3.266139         2.040500         0.380363
 H        -2.602657         1.556901        -1.206207
 H        -1.330262        -2.317794         0.743898
 H        -2.548285        -2.238412         2.005587
 H        -3.757528        -3.185899        -0.637446
