19
Iteration:   974
 C         1.535379         0.057735        -0.281043
 C         0.054335        -0.008359        -0.012962
 C        -1.118387        -0.119457         0.277663
 C        -2.595384         0.051114         0.331948
 C        -2.853157         1.221364        -0.666141
 O        -3.372030        -1.183119         0.080904
 C        -3.030441        -2.411364         0.913780
 C        -2.720096        -3.735788         0.213068
 O        -2.561665        -4.726965         0.861695
 H         1.571305         0.044589        -1.403399
 H         2.036711         1.015966         0.064979
 H         2.064005        -0.817036         0.023978
 H        -2.970025         0.474404         1.297201
 H        -4.015432         1.381359        -0.935203
 H        -2.581746         2.207337        -0.113802
 H        -2.189168         1.076532        -1.540953
 H        -2.185604        -2.346179         1.656466
 H        -3.979260        -2.641876         1.415166
 H        -2.934681        -3.726415        -0.918381
