19
Iteration:  4542charge 0 multiplicity 1
 C         1.541758        -0.616247         0.104120
 C         0.177362        -0.440757         0.415976
 C        -0.917712        -0.290713         0.941453
 C        -2.352981        -0.166858         1.102948
 C        -2.928714         1.259891         1.008692
 O        -3.096351        -0.971382         0.116501
 C        -2.772487        -2.371528         0.349719
 C        -2.914941        -3.081680        -0.975224
 O        -3.322355        -4.206512        -1.134276
 H         1.735510        -0.243195        -0.895922
 H         2.274785        -0.148747         0.796726
 H         1.901963        -1.670256        -0.040530
 H        -2.720210        -0.565431         2.028611
 H        -2.801758         1.922340         1.837768
 H        -2.765027         1.541063        -0.001745
 H        -4.044176         1.154698         1.004248
 H        -1.755960        -2.538828         0.877935
 H        -3.499233        -2.858372         1.070134
 H        -2.484466        -2.453298        -1.887657
