19
Iteration:  2608charge 0 multiplicity 1
 C         1.366463        -0.451136        -0.581211
 C         0.051459        -0.228309        -0.090742
 C        -1.126139        -0.067725         0.278866
 C        -2.482318         0.059233         0.654819
 C        -3.256716         1.188482        -0.143646
 O        -3.205605        -1.207025         0.631224
 C        -2.485413        -2.424494         1.085828
 C        -2.482965        -3.289506        -0.119044
 O        -3.019319        -4.398720        -0.025705
 H         1.695041         0.334165        -1.240403
 H         1.918004        -0.637192         0.316569
 H         1.398634        -1.448248        -1.043979
 H        -2.443041         0.429236         1.684011
 H        -4.303740         1.025948         0.073189
 H        -2.977439         2.129742         0.304663
 H        -3.016102         1.165328        -1.220463
 H        -1.497192        -2.080722         1.505189
 H        -3.024301        -2.957549         1.871586
 H        -2.030238        -2.921046        -1.030494
