19
Iteration:  3186
 C         1.082005        -1.227617        -0.602287
 C        -0.184512        -0.604322        -0.244576
 C        -1.189023        -0.157500         0.320242
 C        -2.507722         0.012035         0.897665
 C        -3.067440         1.435838         0.653784
 O        -3.573762        -0.957970         0.361178
 C        -3.077331        -2.240212         0.708813
 C        -2.396097        -3.048257        -0.348946
 O        -1.784241        -4.034284        -0.082204
 H         1.633035        -0.671550        -1.476508
 H         1.855802        -1.463374         0.176656
 H         0.888875        -2.272749        -0.811384
 H        -2.433270        -0.343101         1.928974
 H        -3.258392         1.866494         1.643122
 H        -2.404498         2.119270         0.229789
 H        -4.044655         1.359843         0.064659
 H        -2.482041        -2.292651         1.653606
 H        -4.007428        -2.764166         0.838630
 H        -2.772424        -2.889303        -1.417061
