19
Iteration:  4586charge 0 multiplicity 1
 C         1.455196        -0.649756        -0.018544
 C         0.176405        -0.450622         0.711017
 C        -0.997216        -0.311128         1.045823
 C        -2.377416        -0.072776         1.226694
 C        -2.996325         1.328006         0.886960
 O        -2.991340        -1.023506         0.141072
 C        -2.520806        -2.418645         0.246230
 C        -2.844040        -3.126123        -1.079785
 O        -3.481143        -4.174333        -1.166547
 H         1.145830        -1.307000        -0.829776
 H         1.814904         0.353054        -0.314117
 H         2.206983        -1.239684         0.559680
 H        -2.758801        -0.340023         2.252455
 H        -2.409991         1.914539         1.590186
 H        -2.886644         1.530577        -0.148092
 H        -4.030368         1.258101         1.297301
 H        -1.459963        -2.550837         0.384868
 H        -2.914915        -2.805404         1.207912
 H        -2.768818        -2.438378        -1.931235
