19
Iteration:  1950
 C         1.508789        -0.635361        -0.234109
 C         0.076535        -0.217014        -0.170503
 C        -1.124119        -0.156412        -0.025739
 C        -2.527769         0.029463         0.576531
 C        -3.393451         0.857564        -0.358001
 O        -3.394464        -1.051956         0.755355
 C        -2.760949        -2.232901         1.092535
 C        -2.718373        -3.118849        -0.107122
 O        -2.328699        -4.247317         0.076364
 H         1.877964        -0.865718         0.893425
 H         1.621328        -1.615020        -0.700347
 H         2.221813         0.033078        -0.763206
 H        -2.451029         0.499844         1.618469
 H        -4.418133         0.509158        -0.179950
 H        -3.450257         1.883136        -0.317772
 H        -3.119779         0.426449        -1.340410
 H        -1.731909        -2.186575         1.450507
 H        -3.403034        -2.620330         1.845513
 H        -3.151411        -2.790284        -1.167705
