19
Iteration:  4031charge 0 multiplicity 1
 C         1.219052        -1.272977        -0.377832
 C        -0.144886        -0.892635        -0.007979
 C        -1.166615        -0.663242         0.610169
 C        -2.441351        -0.144132         1.059164
 C        -2.766511         1.386007         0.672272
 O        -3.737162        -0.963992         0.678246
 C        -3.500536        -2.371666         0.538202
 C        -2.490108        -2.591611        -0.639615
 O        -1.733619        -3.534985        -0.737672
 H         1.501913        -1.624346        -1.463795
 H         2.031438        -0.440710        -0.089786
 H         1.646349        -2.198932         0.142289
 H        -2.325361        -0.005288         2.132311
 H        -2.090451         1.963687         1.437688
 H        -2.578533         1.806445        -0.365911
 H        -3.888598         1.516696         0.690748
 H        -3.097644        -2.963999         1.394493
 H        -4.426946        -2.862968         0.232018
 H        -2.592886        -1.789616        -1.504821
