19
Iteration:  2668charge 0 multiplicity 1
 C         1.524099        -0.315876        -0.551307
 C         0.093605        -0.176577        -0.179833
 C        -1.113759        -0.317914         0.217871
 C        -2.453874         0.027447         0.702840
 C        -3.236327         1.058325        -0.165262
 O        -3.230204        -1.138151         0.790475
 C        -2.626762        -2.400196         1.145456
 C        -2.662957        -3.217793        -0.126859
 O        -2.929122        -4.407158        -0.129092
 H         1.892572        -0.531600        -1.567088
 H         2.055325         0.680674        -0.454012
 H         2.065688        -1.013292         0.073363
 H        -2.435628         0.523663         1.692219
 H        -4.274928         1.256669         0.236949
 H        -2.725525         2.024192        -0.159829
 H        -3.437985         0.759543        -1.232752
 H        -1.690070        -2.462627         1.594487
 H        -3.405140        -2.927283         1.733332
 H        -2.646851        -2.690899        -1.083490
