19
Iteration:   767
 C         1.476592         0.035721        -0.033594
 C         0.019906        -0.318994         0.098306
 C        -1.173881         0.006596        -0.119670
 C        -2.509458         0.117453         0.313611
 C        -3.399799         0.936399        -0.660640
 O        -3.095365        -1.202382         0.189226
 C        -2.296509        -2.318571         0.908542
 C        -2.634734        -3.554820         0.204594
 O        -3.071573        -4.562438         0.768197
 H         2.105379        -0.885719        -0.341551
 H         1.591948         0.711751        -0.949666
 H         1.879707         0.407235         0.894686
 H        -2.543567         0.510787         1.385093
 H        -4.408555         0.480395        -0.779939
 H        -3.653809         1.957696        -0.336164
 H        -2.969832         1.078756        -1.711227
 H        -1.148795        -2.183649         0.751500
 H        -2.474132        -2.289648         2.036998
 H        -2.360688        -3.619919        -0.862466
