19
Iteration:  1829charge 0 multiplicity 1
 C         1.497141        -0.107568        -0.431433
 C         0.184137        -0.028830         0.137656
 C        -0.985513         0.024736         0.398252
 C        -2.480293         0.112355         0.575054
 C        -3.227985         0.891160        -0.490258
 O        -3.178570        -1.151861         0.465746
 C        -2.627532        -2.365450         0.830366
 C        -3.062386        -3.518680         0.025036
 O        -2.777156        -4.642536         0.299879
 H         1.551924        -0.460909        -1.508115
 H         1.983079         0.870245        -0.500203
 H         2.185146        -0.742322         0.152273
 H        -2.698040         0.645878         1.521044
 H        -4.304325         0.951914        -0.259451
 H        -2.883002         1.942429        -0.598279
 H        -3.041789         0.322050        -1.388817
 H        -1.487135        -2.256011         0.739149
 H        -2.825772        -2.641186         1.871876
 H        -3.615981        -3.233447        -0.872020
