19
Iteration:  1863charge 0 multiplicity 1
 C         1.456134        -0.249620        -0.405596
 C         0.094153         0.011861         0.033639
 C        -1.006226        -0.126419         0.423219
 C        -2.566269         0.085065         0.604930
 C        -3.150817         0.876489        -0.545676
 O        -3.332176        -1.129125         0.628842
 C        -2.633937        -2.278250         0.892780
 C        -2.949389        -3.406557        -0.032514
 O        -2.609518        -4.556883         0.187104
 H         1.568934        -1.356002        -0.720408
 H         1.838452         0.430128        -1.131011
 H         2.220783        -0.125775         0.359670
 H        -2.692059         0.549433         1.608055
 H        -4.134560         1.345550        -0.255734
 H        -2.372958         1.513590        -0.895258
 H        -3.511215         0.272802        -1.417938
 H        -1.503444        -2.151843         0.686911
 H        -2.718648        -2.568028         1.937804
 H        -3.411406        -3.097858        -0.932921
