19
Iteration:  2235charge 0 multiplicity 1
 C         1.125745        -1.284556        -0.826475
 C        -0.253064        -0.832797        -0.281708
 C        -1.110855        -0.203095         0.283190
 C        -2.612839        -0.026173         0.770487
 C        -3.384139         1.362931         0.442071
 O        -3.440302        -0.919355         0.031563
 C        -3.379104        -2.275006         0.467634
 C        -2.073861        -2.966582         0.046873
 O        -1.549174        -3.769874         0.748482
 H         1.731285        -1.556201         0.070095
 H         1.035420        -2.203263        -1.349913
 H         1.544227        -0.462104        -1.301148
 H        -2.724889        -0.238846         1.850054
 H        -4.144354         1.593890         1.152534
 H        -2.697067         2.260266         0.387685
 H        -3.831952         1.205370        -0.490321
 H        -3.613927        -2.371079         1.563494
 H        -4.111762        -2.910508        -0.130972
 H        -1.915010        -2.769099        -1.123712
