19
Iteration:  1071
 C         1.578281        -0.054769        -0.022218
 C         0.155112         0.073912        -0.079359
 C        -1.057915         0.067038        -0.030792
 C        -2.516444         0.007847         0.340954
 C        -3.168769         1.008755        -0.542339
 O        -3.138372        -1.210953         0.019262
 C        -2.976590        -2.315107         0.946809
 C        -3.193888        -3.722598         0.401954
 O        -2.360081        -4.603566         0.563658
 H         1.730068        -0.860968         0.733331
 H         1.920600        -0.345316        -1.066839
 H         2.167577         0.751885         0.373197
 H        -2.691825         0.218112         1.428649
 H        -4.167645         1.389568        -0.212371
 H        -2.531512         1.899044        -0.521501
 H        -3.222361         0.458623        -1.443193
 H        -1.907887        -2.294497         1.344160
 H        -3.768494        -2.245762         1.719554
 H        -4.229610        -3.936118         0.056071
