19
Iteration:  1333charge 0 multiplicity 1
 C         1.505740         0.315196        -0.228382
 C         0.134335         0.264786         0.049317
 C        -1.042420         0.095891         0.278039
 C        -2.479228        -0.061276         0.435289
 C        -3.006765         1.120919        -0.338430
 O        -2.805684        -1.363681        -0.138973
 C        -2.625501        -2.527696         0.819423
 C        -3.240054        -3.750885         0.222087
 O        -3.056665        -4.864343         0.617162
 H         2.034192        -0.456199         0.304232
 H         1.593647         0.299340        -1.352044
 H         1.820304         1.281362         0.130598
 H        -2.877649        -0.023613         1.470915
 H        -2.286977         1.824316        -0.750685
 H        -3.919742         0.880062        -0.913069
 H        -3.473748         1.815219         0.418502
 H        -1.562469        -2.730734         0.957544
 H        -3.287677        -2.427277         1.698881
 H        -4.044768        -3.533591        -0.540722
