19
Iteration:  4618charge 0 multiplicity 1
 C         1.493505        -0.686791         0.056220
 C         0.211025        -0.289924         0.670628
 C        -0.921055        -0.120177         1.104952
 C        -2.395091        -0.194443         1.273239
 C        -2.950987         1.144761         0.835320
 O        -3.018507        -1.092360         0.184207
 C        -2.538374        -2.439259         0.181417
 C        -3.008118        -3.022771        -1.101236
 O        -3.464355        -4.132676        -1.163106
 H         1.373037        -1.789596        -0.168219
 H         1.673376        -0.354829        -0.996993
 H         2.474601        -0.558386         0.594364
 H        -2.767297        -0.558794         2.325288
 H        -2.524879         1.915108         1.573792
 H        -2.637213         1.420407        -0.177849
 H        -4.075725         1.316210         0.892505
 H        -1.486872        -2.514274         0.018446
 H        -2.841781        -2.894759         1.153477
 H        -3.025975        -2.275937        -1.910514
