19
Iteration:  1771charge 0 multiplicity 1
 C         1.630112         0.079502        -0.204908
 C         0.131427         0.057272        -0.200918
 C        -0.981428        -0.069402         0.185360
 C        -2.510440        -0.008085         0.482190
 C        -3.238553         1.137225        -0.256894
 O        -3.072510        -1.316737         0.117279
 C        -2.455617        -2.329934         0.844770
 C        -3.171988        -3.610808         0.197664
 O        -2.979688        -4.747749         0.491510
 H         1.918065         0.884157        -0.853492
 H         1.869128         0.131103         0.926804
 H         1.896809        -0.940240        -0.607963
 H        -2.696294         0.174758         1.572929
 H        -4.199011         0.843497        -0.586942
 H        -3.183104         2.019550         0.399938
 H        -2.727509         1.447480        -1.158431
 H        -1.354760        -2.266623         0.630544
 H        -2.585782        -2.309898         1.947538
 H        -3.804519        -3.253695        -0.654857
