19
Iteration:  4016
 C         1.190344        -1.308995        -0.362581
 C        -0.172614        -0.946622         0.018332
 C        -1.259824        -0.608492         0.441294
 C        -2.535897        -0.124677         1.099470
 C        -2.764703         1.380713         0.735697
 O        -3.666669        -0.900557         0.706739
 C        -3.357309        -2.311166         0.499089
 C        -2.450418        -2.638448        -0.658467
 O        -1.720840        -3.577808        -0.714273
 H         1.274765        -1.059702        -1.394543
 H         1.818273        -0.625601         0.188551
 H         1.372790        -2.361400        -0.017855
 H        -2.556241        -0.351456         2.178774
 H        -2.088784         2.058804         1.247997
 H        -2.529805         1.405424        -0.326469
 H        -3.802494         1.570890         0.892867
 H        -3.013153        -2.735958         1.433719
 H        -4.325351        -2.678849         0.136686
 H        -2.583904        -2.059843        -1.586449
