19
Iteration:  1435
 C         1.640076         0.542628        -0.229545
 C         0.171568         0.316243        -0.242017
 C        -0.941676         0.184674         0.302628
 C        -2.355253        -0.064419         0.511783
 C        -3.178828         0.924553        -0.288098
 O        -2.551637        -1.476448        -0.000701
 C        -2.651329        -2.492438         0.972575
 C        -3.278459        -3.738747         0.196440
 O        -3.500029        -4.923424         0.481177
 H         1.827304         1.611803         0.003495
 H         2.156654        -0.096390         0.522017
 H         2.120465         0.357488        -1.237023
 H        -2.545514        -0.077742         1.601166
 H        -3.784783         1.596410         0.240581
 H        -2.508005         1.637855        -0.749540
 H        -3.567812         0.341371        -1.115167
 H        -1.724456        -2.690262         1.498648
 H        -3.451792        -2.188267         1.702543
 H        -3.428319        -3.404185        -0.917090
