19
Iteration:  2318charge 0 multiplicity 1
 C         1.214204        -0.631196        -0.711537
 C        -0.190557        -0.562737        -0.442216
 C        -1.216776        -0.424642         0.260782
 C        -2.502488        -0.069377         0.711549
 C        -2.922178         1.331530         0.361832
 O        -3.470712        -0.941002         0.087046
 C        -3.470426        -2.316005         0.561570
 C        -2.374370        -3.226038         0.080347
 O        -1.792315        -4.125448         0.733115
 H         1.583837         0.404018        -0.945580
 H         1.723720        -1.108748         0.182018
 H         1.470906        -1.397984        -1.539458
 H        -2.554402        -0.232372         1.823171
 H        -4.025296         1.344409         0.252338
 H        -2.629422         2.036514         1.150710
 H        -2.481771         1.743090        -0.619166
 H        -3.633480        -2.353137         1.665256
 H        -4.393674        -2.646951         0.057022
 H        -2.133655        -3.146980        -1.085031
