19
Iteration:  1552charge 0 multiplicity 1
 C         1.544869         0.725374        -0.130458
 C         0.180065         0.227304        -0.181190
 C        -0.876790        -0.158880         0.289918
 C        -2.287398        -0.256180         0.441752
 C        -3.128461         0.902723        -0.029043
 O        -2.863286        -1.413623        -0.180250
 C        -2.302425        -2.604414         0.321363
 C        -3.263661        -3.726010         0.112173
 O        -3.590819        -4.546026         0.997593
 H         2.183984         0.356709        -0.882437
 H         1.460907         1.839519        -0.144822
 H         1.847985         0.410476         0.845633
 H        -2.432250        -0.367607         1.542011
 H        -3.328561         0.733931        -1.112695
 H        -4.083039         1.138464         0.403509
 H        -2.363505         1.788951         0.012641
 H        -1.354890        -2.819625        -0.186120
 H        -2.169507        -2.607431         1.398370
 H        -3.761901        -3.669413        -0.916156
