19
Iteration:  3293charge 0 multiplicity 1
 C         1.049210        -1.108620        -0.593337
 C        -0.136533        -0.609216        -0.004773
 C        -1.256079        -0.404144         0.498776
 C        -2.667606         0.050721         0.906749
 C        -2.983227         1.509888         0.406471
 O        -3.567983        -0.968707         0.501480
 C        -2.948605        -2.257641         0.791562
 C        -2.185837        -2.939024        -0.431612
 O        -1.986998        -4.152303        -0.306930
 H         0.908297        -2.174828        -0.553225
 H         1.108773        -0.754114        -1.663161
 H         1.978795        -0.978301        -0.142405
 H        -2.853833        -0.048131         1.994817
 H        -2.113610         1.960635        -0.043841
 H        -3.772127         1.390715        -0.271523
 H        -3.363926         2.050824         1.323418
 H        -2.304252        -2.434408         1.679478
 H        -3.855094        -2.893763         0.881503
 H        -2.150908        -2.284081        -1.288309
