19
Iteration:  3153charge 0 multiplicity 1
 C         1.103894        -1.073425        -0.588941
 C        -0.263462        -0.859379        -0.284668
 C        -1.258363        -0.369163         0.170110
 C        -2.458761         0.057310         0.886280
 C        -2.978050         1.490649         0.657977
 O        -3.533323        -0.927632         0.406750
 C        -3.296197        -2.303198         0.772877
 C        -2.394507        -3.035418        -0.271546
 O        -1.670963        -3.989285        -0.112135
 H         1.721488        -0.111000        -0.803965
 H         1.654772        -1.587252         0.229768
 H         1.149038        -1.536981        -1.562334
 H        -2.230736        -0.056884         1.952004
 H        -3.850885         1.560756         1.330995
 H        -2.279808         2.243469         0.870679
 H        -3.454221         1.691655        -0.354509
 H        -2.917286        -2.318946         1.786656
 H        -4.301370        -2.590898         1.005723
 H        -2.509339        -2.712039        -1.365056
