19
Iteration:  3024charge 0 multiplicity 1
 C         1.040690        -0.904541        -0.889076
 C        -0.111832        -0.648047         0.017159
 C        -1.266842        -0.500670         0.471907
 C        -2.449332         0.037381         0.986221
 C        -2.829185         1.396005         0.475343
 O        -3.605278        -0.906996         0.233367
 C        -3.264304        -2.232744         0.733819
 C        -2.431470        -3.099817        -0.236027
 O        -1.758559        -4.105085         0.022108
 H         1.471977        -1.898604        -0.792530
 H         0.599681        -0.656362        -1.799567
 H         1.743543        -0.085253        -0.637129
 H        -2.509579        -0.195942         2.046780
 H        -3.758977         1.678462         1.041131
 H        -2.101469         2.182446         0.537844
 H        -3.095284         1.160551        -0.615243
 H        -2.646439        -2.213874         1.650259
 H        -4.263733        -2.694368         1.019766
 H        -2.703929        -2.855124        -1.328955
