19
Iteration:   784
 C         1.450500        -0.078668         0.028791
 C         0.059133        -0.379424        -0.086403
 C        -1.115361        -0.012381        -0.010324
 C        -2.565187         0.153615         0.181354
 C        -3.582002         1.008040        -0.621359
 O        -2.957390        -1.278738         0.246635
 C        -2.286593        -2.235039         0.914340
 C        -2.556451        -3.568706         0.179372
 O        -3.081280        -4.493187         0.757841
 H         2.142871        -0.825197         0.264554
 H         1.783017         0.387612        -0.862858
 H         1.459501         0.750315         0.793562
 H        -2.738410         0.424515         1.215978
 H        -4.489508         0.447910        -0.591438
 H        -3.588974         2.046357        -0.259782
 H        -3.253244         1.224257        -1.671840
 H        -1.261883        -1.946802         1.032722
 H        -2.729004        -2.406029         1.862728
 H        -2.412377        -3.627685        -0.949233
