19
Iteration:  2444
 C         1.441345        -0.245593        -0.602415
 C         0.086573        -0.498712        -0.336399
 C        -1.046941        -0.154986         0.049108
 C        -2.387145        -0.023577         0.649198
 C        -3.048581         1.296413         0.273254
 O        -3.348266        -0.982883         0.263769
 C        -3.280073        -2.298575         0.868451
 C        -2.572226        -3.463609         0.013248
 O        -2.469305        -4.575632         0.411381
 H         2.103898        -1.121939        -0.736012
 H         1.442668         0.395709        -1.492205
 H         1.908639         0.317963         0.204358
 H        -2.262404        -0.005880         1.760197
 H        -4.129708         1.180965         0.536276
 H        -2.750126         2.185786         0.737833
 H        -3.021343         1.444789        -0.845166
 H        -2.954034        -2.238879         1.889837
 H        -4.298908        -2.665552         0.997209
 H        -2.120939        -3.115485        -0.906899
