19
Iteration:  1560charge 0 multiplicity 1
 C         1.540943         0.715701        -0.115798
 C         0.195012         0.289563        -0.162919
 C        -0.845142        -0.152176         0.264290
 C        -2.303512        -0.288182         0.527984
 C        -3.101040         0.836878        -0.075397
 O        -2.940166        -1.383692        -0.173316
 C        -2.238194        -2.566407         0.262560
 C        -3.291207        -3.742764         0.166876
 O        -3.616212        -4.558245         0.980966
 H         2.191717         0.123058        -0.842603
 H         1.697327         1.802659        -0.406142
 H         2.011128         0.511868         0.865107
 H        -2.592786        -0.291802         1.606125
 H        -3.128836         0.880970        -1.157827
 H        -4.082038         0.747060         0.345604
 H        -2.633527         1.763064         0.140370
 H        -1.317772        -2.756963        -0.314129
 H        -1.829671        -2.295833         1.256231
 H        -3.773258        -3.755077        -0.892325
