19
Iteration:  1636
 C         1.710221         0.476702        -0.208886
 C         0.258467         0.218980         0.087379
 C        -0.929996         0.070087         0.295336
 C        -2.351477        -0.155238         0.518937
 C        -3.353008         0.836181        -0.126129
 O        -2.913512        -1.353638        -0.062893
 C        -2.207412        -2.585708         0.056679
 C        -3.320311        -3.667743         0.234242
 O        -3.508367        -4.590428         0.988518
 H         2.471708        -0.039595         0.472351
 H         2.080086         0.127646        -1.243681
 H         2.009965         1.538232        -0.255345
 H        -2.511463        -0.283072         1.604732
 H        -2.946177         1.870825        -0.249188
 H        -3.431311         0.355650        -1.114935
 H        -4.352436         0.754807         0.310794
 H        -1.689152        -2.695127        -0.944617
 H        -1.348601        -2.557554         0.817883
 H        -4.083370        -3.508321        -0.550596
