19
Iteration:  1390
 C         1.586728         0.446407        -0.381764
 C         0.305954         0.258475         0.215229
 C        -0.916819         0.156707         0.260977
 C        -2.359279        -0.074791         0.524448
 C        -3.255705         0.750618        -0.408562
 O        -2.686374        -1.369854         0.031933
 C        -2.738360        -2.452429         1.009826
 C        -3.230109        -3.643041         0.086195
 O        -3.299379        -4.769590         0.462573
 H         2.400283         0.765865         0.270849
 H         1.999470        -0.548935        -0.755623
 H         1.618361         1.144447        -1.241625
 H        -2.698410         0.007616         1.582121
 H        -3.260980         1.777771        -0.130491
 H        -2.844375         0.844867        -1.390400
 H        -4.202469         0.133893        -0.443808
 H        -1.733105        -2.711817         1.341912
 H        -3.345882        -2.287336         1.937798
 H        -3.722295        -3.424933        -0.827854
