19
Iteration:  1718charge 0 multiplicity 1
 C         1.740229         0.168681        -0.220626
 C         0.300814         0.119401         0.080230
 C        -0.967294         0.114011         0.116449
 C        -2.420944        -0.048492         0.343758
 C        -3.347887         1.236703         0.035534
 O        -3.006372        -1.281360        -0.280870
 C        -2.559578        -2.495096         0.428686
 C        -3.301968        -3.822895         0.245652
 O        -3.056506        -4.778118         0.903232
 H         2.078530         1.166824         0.063355
 H         2.313118        -0.685651         0.290108
 H         1.892003         0.195821        -1.338250
 H        -2.589606        -0.157049         1.456651
 H        -4.127708         1.179700         0.808935
 H        -2.729969         2.197246         0.256663
 H        -3.895212         1.254192        -0.891418
 H        -1.467657        -2.575785         0.075860
 H        -2.566712        -2.337302         1.507172
 H        -4.079234        -3.784554        -0.618940
