19
Iteration:   462
 C         1.516965         0.297862         0.016404
 C         0.034879         0.447872         0.043724
 C        -1.078093         0.013177         0.291888
 C        -2.549632        -0.187408         0.251580
 C        -3.164939         0.931847        -0.694140
 O        -2.834875        -1.482691        -0.395866
 C        -2.236121        -2.442239         0.412656
 C        -3.065842        -3.798835         0.416458
 O        -3.318637        -4.472272         1.418885
 H         1.659220        -0.367212        -0.865775
 H         2.115070         1.207257        -0.065766
 H         1.788916        -0.116699         0.923195
 H        -3.075317        -0.328797         1.256659
 H        -4.142737         1.274192        -0.393434
 H        -2.429056         1.729336        -0.936638
 H        -3.289810         0.441146        -1.698424
 H        -1.322071        -2.810092        -0.184376
 H        -1.762469        -2.177940         1.321373
 H        -3.440464        -3.937141        -0.637524
