19
Iteration:  4382
 C         1.703527        -0.408339         0.073855
 C         0.265407        -0.525164         0.500492
 C        -0.963923        -0.613065         0.652355
 C        -2.293140        -0.211317         1.010351
 C        -2.654808         1.299753         0.983301
 O        -3.431721        -0.842193         0.306862
 C        -3.325057        -2.314629         0.376896
 C        -3.065014        -3.125065        -0.908849
 O        -2.827471        -4.304811        -1.115599
 H         2.283442        -1.296826         0.280934
 H         1.885689        -0.102456        -0.985093
 H         2.077487         0.425082         0.629285
 H        -2.541052        -0.506571         1.980024
 H        -2.179914         1.733224         1.854787
 H        -2.342199         1.714504        -0.016996
 H        -3.766973         1.507202         0.884480
 H        -2.633345        -2.450202         1.171330
 H        -4.413320        -2.719789         0.507112
 H        -3.090763        -2.391259        -1.744798
