19
Iteration:   965charge 0 multiplicity 1
 C         1.533995         0.028880        -0.356267
 C         0.040897         0.044209         0.086898
 C        -1.186800        -0.150962         0.301294
 C        -2.610972         0.080266         0.356979
 C        -2.844774         1.247603        -0.689330
 O        -3.384980        -1.129417         0.008916
 C        -3.027816        -2.390775         0.934650
 C        -2.678815        -3.776831         0.203044
 O        -2.560132        -4.814154         0.883223
 H         1.605470         0.286721        -1.424472
 H         2.173046         0.753064         0.207781
 H         1.928923        -0.919369        -0.092976
 H        -2.915536         0.410110         1.358933
 H        -3.978808         1.476280        -0.770214
 H        -2.195224         2.023894        -0.199590
 H        -2.363788         1.153987        -1.674053
 H        -2.190508        -1.994363         1.467994
 H        -3.824287        -2.529819         1.662648
 H        -2.687435        -3.783747        -0.915335
