19
Iteration:  1500charge 0 multiplicity 1
 C         1.687430         0.748546        -0.229769
 C         0.337707         0.270598         0.160842
 C        -0.854157        -0.000178         0.086167
 C        -2.243422        -0.193176         0.300084
 C        -3.205128         0.931598        -0.041499
 O        -2.855211        -1.425185        -0.269612
 C        -2.499964        -2.485852         0.648418
 C        -3.309894        -3.797484         0.208077
 O        -3.612044        -4.838495         0.825236
 H         1.438711         1.150184        -1.190896
 H         2.065428         1.465790         0.502851
 H         2.331401        -0.156451        -0.310150
 H        -2.416702        -0.256700         1.383660
 H        -4.160610         0.446591        -0.310630
 H        -3.283543         1.649783         0.836422
 H        -2.803177         1.741221        -0.785348
 H        -1.421177        -2.803854         0.494452
 H        -2.752077        -2.214017         1.715955
 H        -3.342898        -3.731644        -0.889848
