19
Iteration:    71
 C         1.731283         0.230961        -0.169522
 C         0.263916         0.297871        -0.080107
 C        -0.936321         0.234586        -0.213974
 C        -2.348003        -0.065699        -0.009680
 C        -3.183272         0.635976        -1.067421
 O        -2.818299        -1.531676        -0.079379
 C        -2.774919        -2.286521         1.184121
 C        -3.496259        -3.541241         1.035334
 O        -3.038104        -4.668984         1.021859
 H         2.176088         1.245906        -0.045764
 H         2.141731        -0.460238         0.568832
 H         2.050622        -0.201277        -1.126869
 H        -2.690782         0.243197         1.022393
 H        -4.272385         0.391701        -1.020544
 H        -2.980960         1.764338        -0.989271
 H        -2.819658         0.376599        -2.092861
 H        -1.771591        -2.329071         1.622400
 H        -3.472553        -1.755047         1.876536
 H        -4.582709        -3.365452         0.895662
