19
Iteration:  4808charge 0 multiplicity 1
 C         1.913168        -0.052641         0.346107
 C         0.460088        -0.265215         0.743822
 C        -0.764337        -0.520848         0.887200
 C        -2.223580        -0.372070         1.055491
 C        -2.832502         1.056500         1.112437
 O        -2.984074        -1.057038        -0.007859
 C        -2.818438        -2.441237         0.136590
 C        -3.696060        -3.101333        -0.919602
 O        -3.586258        -4.204243        -1.416479
 H         2.173276         0.293578        -0.636312
 H         2.014469         0.767369         0.988718
 H         2.458947        -0.922794         0.646900
 H        -2.449288        -0.901638         1.970848
 H        -2.484158         1.534090         2.069135
 H        -2.436237         1.542458         0.225081
 H        -3.917392         1.046869         0.983630
 H        -1.786196        -2.700687        -0.035052
 H        -3.133771        -2.748989         1.170936
 H        -4.646749        -2.578307        -1.078342
