19
Iteration:  1256
 C         1.717195         0.200555         0.125752
 C         0.151831        -0.091784         0.177597
 C        -1.052677        -0.044031        -0.067443
 C        -2.467503         0.046682         0.318550
 C        -3.330085         1.040485        -0.335080
 O        -3.211131        -1.164486         0.115556
 C        -2.425166        -2.361278         0.370267
 C        -3.235097        -3.736315         0.225490
 O        -2.799620        -4.710230         0.765184
 H         1.967515        -0.256317        -0.851673
 H         1.920665         1.318346         0.103626
 H         2.275656        -0.295124         0.912425
 H        -2.395507         0.262904         1.432933
 H        -4.013464         0.421182        -0.997667
 H        -4.105526         1.590301         0.233543
 H        -2.840940         1.695240        -1.021296
 H        -1.850061        -2.554631        -0.522246
 H        -1.814155        -2.330707         1.299130
 H        -4.132691        -3.732847        -0.523372
