19
Iteration:  3227
 C         0.990247        -1.336254        -0.616283
 C        -0.056574        -0.494703         0.000304
 C        -1.145181        -0.115596         0.328367
 C        -2.505959         0.108025         0.892946
 C        -3.248320         1.485516         0.582784
 O        -3.331757        -0.945708         0.386325
 C        -3.097535        -2.346807         0.724378
 C        -2.358352        -3.063439        -0.293524
 O        -1.852829        -4.130042        -0.245177
 H         0.569386        -1.429399        -1.625250
 H         2.020574        -0.894583        -0.685327
 H         0.887636        -2.352293        -0.267522
 H        -2.369531         0.156186         2.011024
 H        -2.989815         2.361660         1.190520
 H        -3.224898         1.747176        -0.453226
 H        -4.296077         1.278382         0.872444
 H        -2.984001        -2.370185         1.862384
 H        -4.099529        -2.861931         0.597916
 H        -2.319650        -2.456661        -1.276350
