19
Iteration:  2386
 C         1.404920        -0.348081        -0.779091
 C         0.083208        -0.123186        -0.100057
 C        -1.061537        -0.497740         0.129348
 C        -2.509538        -0.204095         0.702874
 C        -2.805157         1.199090         0.261948
 O        -3.605796        -0.993728         0.095272
 C        -3.453059        -2.277802         0.777935
 C        -2.527959        -3.314090         0.072625
 O        -2.188578        -4.347163         0.550245
 H         1.212328        -0.549016        -1.917822
 H         2.068341         0.556878        -0.736261
 H         1.892889        -1.145540        -0.212718
 H        -2.630367        -0.292801         1.817320
 H        -3.531169         1.673665         0.942568
 H        -1.797640         1.768797         0.083661
 H        -3.257731         1.121118        -0.709928
 H        -3.061405        -2.182405         1.789998
 H        -4.349416        -2.912261         0.725765
 H        -2.256627        -3.003096        -0.967760
