19
Iteration:  1788charge 0 multiplicity 1
 C         1.549689         0.048320        -0.251846
 C         0.045155        -0.067466        -0.103723
 C        -1.075472        -0.001190         0.204969
 C        -2.515937         0.069715         0.421459
 C        -3.180689         1.254500        -0.383083
 O        -3.058655        -1.269892         0.267092
 C        -2.404857        -2.418067         0.966144
 C        -3.023420        -3.612059         0.254327
 O        -3.006046        -4.818108         0.329439
 H         1.837822         0.563772        -1.222187
 H         1.919223         0.520934         0.619722
 H         2.110075        -0.864062        -0.311410
 H        -2.647640         0.157684         1.522076
 H        -4.257957         0.994711        -0.713390
 H        -3.118565         2.110577         0.287838
 H        -2.670518         1.477160        -1.397373
 H        -1.320453        -2.518394         0.812025
 H        -2.680613        -2.385950         2.043310
 H        -3.732148        -3.167385        -0.556639
