19
Iteration:  4958charge 0 multiplicity 1
 C         1.884821        -0.090492         0.546825
 C         0.371219        -0.170717         0.622616
 C        -0.799213        -0.404856         0.799898
 C        -2.260083        -0.429439         1.038988
 C        -2.904428         0.890037         1.380864
 O        -2.900474        -1.025979        -0.125207
 C        -2.506015        -2.358117        -0.186863
 C        -3.322657        -3.190929        -1.223957
 O        -4.094433        -4.113932        -1.003232
 H         2.135221         0.274980         1.562740
 H         2.131952        -1.152133         0.492143
 H         2.200330         0.600265        -0.230346
 H        -2.551912        -1.158116         1.754703
 H        -2.504884         1.260362         2.315186
 H        -2.492067         1.673021         0.774568
 H        -3.894138         0.608303         1.525370
 H        -1.486065        -2.437663        -0.488646
 H        -2.650580        -2.827131         0.790857
 H        -3.423502        -2.749291        -2.316074
