19
Iteration:  1865
 C         1.447301        -0.253459        -0.396069
 C         0.094300        -0.013264         0.036606
 C        -1.032506        -0.112721         0.388413
 C        -2.565513         0.100563         0.611964
 C        -3.136215         0.880250        -0.553478
 O        -3.329352        -1.130110         0.642311
 C        -2.623993        -2.279162         0.912164
 C        -2.943831        -3.422133        -0.037750
 O        -2.604132        -4.551906         0.177349
 H         1.551093        -1.339979        -0.666482
 H         1.740677         0.420072        -1.192288
 H         2.160297        -0.092669         0.399955
 H        -2.687076         0.542438         1.632669
 H        -4.098007         1.417319        -0.237522
 H        -2.346245         1.541604        -0.868902
 H        -3.497438         0.278122        -1.489689
 H        -1.483255        -2.192761         0.710808
 H        -2.715876        -2.586157         1.978043
 H        -3.421697        -3.090475        -0.979951
