19
Iteration:  4099
 C         1.216893        -1.197153        -0.371807
 C        -0.010950        -0.842466         0.318732
 C        -1.133956        -0.592173         0.782819
 C        -2.485872        -0.002758         1.102471
 C        -2.802169         1.431332         0.638769
 O        -3.581581        -0.977971         0.642187
 C        -3.315037        -2.325933         0.513431
 C        -2.647250        -2.750701        -0.870110
 O        -1.936068        -3.756362        -0.903087
 H         1.379808        -2.330503        -0.314125
 H         1.258597        -0.783057        -1.463371
 H         2.089802        -0.771211         0.160991
 H        -2.638010        -0.059307         2.179154
 H        -1.895889         2.020851         0.913534
 H        -3.084991         1.660817        -0.402585
 H        -3.592235         1.942895         1.315951
 H        -2.685284        -2.740657         1.336719
 H        -4.253484        -2.870380         0.684935
 H        -2.996992        -2.154771        -1.705174
