19
Iteration:  3345charge 0 multiplicity 1
 C         1.272171        -0.969431        -0.546596
 C         0.005356        -0.630823        -0.009959
 C        -1.092670        -0.393699         0.452841
 C        -2.433516         0.073440         0.972099
 C        -3.104986         1.299591         0.282666
 O        -3.455234        -1.022273         0.588490
 C        -3.282852        -2.329019         0.792770
 C        -2.614653        -2.999237        -0.355645
 O        -1.927429        -3.983518        -0.404965
 H         1.944264        -1.291322         0.244974
 H         1.285523        -1.626681        -1.478925
 H         1.691961         0.128204        -0.759750
 H        -2.529596         0.092528         2.059677
 H        -2.362558         1.927400        -0.284503
 H        -4.014861         1.034573        -0.278193
 H        -3.309417         1.974637         1.194649
 H        -2.931484        -2.642910         1.747606
 H        -4.271960        -2.859823         0.707654
 H        -3.195642        -2.453304        -1.232285
