19
Iteration:  4079
 C         1.180593        -1.200792        -0.361653
 C         0.014638        -0.768578         0.345809
 C        -1.138313        -0.569953         0.612826
 C        -2.457505        -0.165141         1.128633
 C        -2.753634         1.234287         0.640784
 O        -3.596700        -0.897205         0.655130
 C        -3.382164        -2.299883         0.469698
 C        -2.672438        -2.701444        -0.791582
 O        -1.876367        -3.631564        -0.817903
 H         1.039736        -2.218469        -0.718798
 H         1.403918        -0.592008        -1.210095
 H         2.133960        -1.273298         0.131332
 H        -2.315386        -0.185183         2.247270
 H        -2.060978         2.002797         0.886659
 H        -2.878497         1.191791        -0.445328
 H        -3.827774         1.469975         0.858745
 H        -2.861914        -2.756730         1.361515
 H        -4.426561        -2.730655         0.464241
 H        -2.969605        -1.972789        -1.595498
