19
Iteration:  1884
 C         1.379093        -0.271991        -0.326440
 C        -0.019095        -0.268600         0.073717
 C        -1.243357         0.008174         0.170760
 C        -2.557239         0.153685         0.558592
 C        -3.055741         1.077516        -0.569773
 O        -3.267418        -1.119856         0.752928
 C        -2.551857        -2.378631         1.023664
 C        -2.872119        -3.430991        -0.014237
 O        -2.566226        -4.589358         0.084007
 H         1.862488        -1.320198        -0.358648
 H         1.555347         0.169109        -1.289557
 H         2.112384         0.314646         0.237285
 H        -2.570243         0.740148         1.495855
 H        -4.087345         1.410568        -0.443111
 H        -2.307823         1.739275        -0.921294
 H        -3.220879         0.357171        -1.366530
 H        -1.478359        -2.139486         1.088364
 H        -2.876097        -2.786601         1.966515
 H        -3.466900        -3.025376        -0.853429
