19
Iteration:  4978charge 0 multiplicity 1
 C         1.804069        -0.127096         0.613976
 C         0.375018        -0.095771         0.654019
 C        -0.824570        -0.342599         0.723318
 C        -2.210412        -0.562362         0.953843
 C        -2.802888         0.874302         1.391371
 O        -3.038455        -1.000728        -0.106707
 C        -2.521990        -2.511290        -0.247802
 C        -3.367670        -3.063677        -1.234319
 O        -3.984843        -4.069088        -0.923716
 H         2.170784         0.695896         1.212790
 H         2.062302        -1.144265         1.046774
 H         2.116095         0.073038        -0.414159
 H        -2.204701        -1.322552         1.817111
 H        -2.566156         1.081227         2.407740
 H        -2.233872         1.765237         0.886393
 H        -3.869546         0.945729         1.328198
 H        -1.480004        -2.569646        -0.651491
 H        -2.795275        -2.961577         0.766529
 H        -3.140592        -2.701597        -2.298033
