19
Iteration:  1091
 C         1.517919        -0.153577         0.021345
 C         0.095127         0.106059        -0.208118
 C        -1.024021        -0.016371         0.279189
 C        -2.548711         0.048312         0.328194
 C        -3.219582         1.141003        -0.606096
 O        -3.175778        -1.257796        -0.075831
 C        -2.760824        -2.301471         0.882103
 C        -3.164294        -3.695087         0.487323
 O        -2.393737        -4.652047         0.536082
 H         1.704689        -0.459528         1.076994
 H         2.010704        -0.775358        -0.759315
 H         1.982815         0.860903        -0.044778
 H        -2.867246         0.183153         1.361632
 H        -3.985944         1.581989         0.015042
 H        -2.597428         1.976579        -0.861187
 H        -3.625837         0.617171        -1.444766
 H        -1.630417        -2.307047         0.895308
 H        -3.195632        -2.020388         1.843183
 H        -4.272328        -3.869911         0.263128
