19
Iteration:   613
 C         1.694579         0.662914        -0.165328
 C         0.296190         0.306408        -0.046494
 C        -0.868510        -0.027145         0.117820
 C        -2.313851        -0.197520         0.164091
 C        -3.043872         0.865006        -0.735234
 O        -2.947457        -1.477246        -0.088880
 C        -2.949147        -2.449129         1.054202
 C        -3.592048        -3.752634         0.676141
 O        -2.887015        -4.730806         0.726748
 H         1.958100         1.648223         0.353588
 H         2.268712        -0.248572         0.199437
 H         2.004204         0.899435        -1.234607
 H        -2.655065         0.062887         1.169965
 H        -3.989482         0.456667        -1.076262
 H        -3.303812         1.817762        -0.225425
 H        -2.511932         1.072928        -1.741525
 H        -1.934426        -2.688751         1.105204
 H        -3.335586        -2.001137         2.028226
 H        -4.676813        -3.823274         0.362201
