19
Iteration:   639charge 0 multiplicity 1
 C         1.559071         0.549489        -0.264234
 C         0.233730         0.232337         0.157870
 C        -0.930340        -0.087435         0.186192
 C        -2.409297        -0.240674         0.272444
 C        -3.057866         0.790420        -0.654778
 O        -2.842709        -1.489604        -0.223344
 C        -2.868656        -2.325236         0.997210
 C        -3.425387        -3.565413         0.638610
 O        -2.873153        -4.668912         0.709532
 H         1.649935         1.599998        -0.538267
 H         2.369049         0.138879         0.346649
 H         1.636113         0.083810        -1.216411
 H        -2.798518        -0.105195         1.290156
 H        -4.115281         0.533052        -0.890010
 H        -2.950664         1.864946        -0.475082
 H        -2.577249         0.570910        -1.604581
 H        -1.793787        -2.318765         1.438289
 H        -3.615421        -1.852639         1.663183
 H        -4.408236        -3.456762         0.139628
