19
Iteration:   954
 C         1.390261        -0.009461        -0.368090
 C         0.068475         0.063107         0.172451
 C        -1.112800        -0.147822         0.320391
 C        -2.626025         0.067444         0.322990
 C        -2.836186         1.234299        -0.650606
 O        -3.369868        -1.162810        -0.029399
 C        -2.999497        -2.249769         0.864262
 C        -2.683162        -3.794568         0.271549
 O        -2.561244        -4.832391         0.862150
 H         1.578705         0.424014        -1.364796
 H         2.068521         0.471240         0.371292
 H         1.692110        -1.023844        -0.493885
 H        -2.899701         0.368543         1.335301
 H        -3.867265         1.745606        -0.555095
 H        -2.183967         2.127076        -0.457517
 H        -2.783310         0.791789        -1.634967
 H        -2.020928        -2.048898         1.285054
 H        -3.712060        -2.383247         1.672863
 H        -2.248765        -3.739270        -0.735002
