19
Iteration:  4246charge 0 multiplicity 1
 C         1.439896        -1.099910        -0.074330
 C         0.051473        -0.593743         0.187285
 C        -1.044136        -0.291363         0.725018
 C        -2.518512        -0.058922         1.087718
 C        -3.004655         1.361988         1.013003
 O        -3.356840        -0.887679         0.258531
 C        -3.057685        -2.284102         0.490091
 C        -2.522848        -2.967037        -0.733766
 O        -2.667258        -4.092401        -1.146832
 H         2.133067        -0.390758        -0.562402
 H         1.799155        -1.437422         0.876043
 H         1.424293        -2.031503        -0.734424
 H        -2.710053        -0.212732         2.136148
 H        -2.243100         2.119261         1.468082
 H        -3.113904         1.834584         0.002085
 H        -4.006761         1.467982         1.445189
 H        -2.287556        -2.439282         1.265949
 H        -3.838194        -2.939391         1.040366
 H        -1.755268        -2.287283        -1.191879
