19
Iteration:  3625
 C         1.274346        -0.989162        -0.605761
 C        -0.016711        -0.417594        -0.032837
 C        -1.047749        -0.213765         0.629449
 C        -2.465763        -0.097856         0.993604
 C        -3.069065         1.342726         0.779853
 O        -3.327114        -0.924011         0.211173
 C        -3.284341        -2.260092         0.655910
 C        -2.491287        -3.052168        -0.471737
 O        -2.243215        -4.261432        -0.366676
 H         2.080867        -1.101163         0.233160
 H         1.209860        -2.077431        -0.995057
 H         1.515681        -0.416632        -1.499386
 H        -2.622740        -0.312485         2.110926
 H        -2.753855         2.062301         1.575085
 H        -2.581727         1.802100        -0.068649
 H        -4.203377         1.479614         0.704042
 H        -2.790631        -2.470555         1.600945
 H        -4.273440        -2.647868         0.525197
 H        -2.089842        -2.296181        -1.177274
