19
Iteration:  4601charge 0 multiplicity 1
 C         1.401675        -0.703013        -0.001885
 C         0.237575        -0.324547         0.717578
 C        -0.901340        -0.284727         1.166567
 C        -2.406288        -0.150121         1.081603
 C        -2.981010         1.256658         0.902625
 O        -2.993968        -1.057296         0.213730
 C        -2.497240        -2.362043         0.255569
 C        -2.985873        -3.078717        -1.041673
 O        -3.479925        -4.187819        -1.212144
 H         1.363029        -1.587873        -0.657585
 H         1.721267         0.105092        -0.700324
 H         2.186560        -0.782786         0.732983
 H        -2.714281        -0.460084         2.038686
 H        -2.525584         2.088696         1.381487
 H        -2.898710         1.708795        -0.142084
 H        -4.034271         1.155999         1.060189
 H        -1.342465        -2.201885         0.159018
 H        -2.855313        -3.043525         1.030848
 H        -2.602399        -2.506864        -2.002235
