19
Iteration:   461charge 0 multiplicity 1
 C         1.522882         0.296026         0.016620
 C         0.033473         0.439601         0.044333
 C        -1.083050         0.018939         0.293718
 C        -2.549591        -0.200408         0.255783
 C        -3.166842         0.933366        -0.691730
 O        -2.836738        -1.484283        -0.400794
 C        -2.242675        -2.433174         0.407988
 C        -3.060792        -3.799243         0.422045
 O        -3.316722        -4.464326         1.417594
 H         1.651415        -0.344798        -0.885284
 H         2.128909         1.199377        -0.036346
 H         1.787772        -0.134349         0.908582
 H        -3.087606        -0.366269         1.247651
 H        -4.184744         1.260927        -0.397175
 H        -2.426009         1.722704        -0.942011
 H        -3.252156         0.433757        -1.684462
 H        -1.321601        -2.835664        -0.186071
 H        -1.732994        -2.131534         1.309289
 H        -3.417140        -3.905504        -0.637563
