19
Iteration:  3437
 C         1.383710        -0.680608        -0.312446
 C        -0.068162        -0.669964        -0.301065
 C        -1.211507        -0.521847         0.144007
 C        -2.471959        -0.093011         0.927931
 C        -2.826754         1.368913         0.462904
 O        -3.653889        -1.064630         0.641437
 C        -3.157117        -2.299829         0.845694
 C        -2.687570        -2.976363        -0.351647
 O        -2.076149        -4.028766        -0.445393
 H         2.022964         0.149070        -0.731371
 H         1.826397        -1.076517         0.675647
 H         1.763627        -1.527512        -0.871461
 H        -2.283189        -0.025422         1.997476
 H        -2.332909         2.031717         1.216485
 H        -2.342170         1.471059        -0.552886
 H        -3.902253         1.508174         0.498841
 H        -2.442069        -2.434327         1.712069
 H        -4.021983        -2.921575         1.122704
 H        -2.991863        -2.411996        -1.286255
