19
Iteration:  1825
 C         1.510943        -0.097482        -0.429839
 C         0.198265        -0.060556         0.142626
 C        -1.051316         0.065292         0.352093
 C        -2.493711         0.091383         0.560812
 C        -3.218975         0.920873        -0.480841
 O        -3.138478        -1.137811         0.465589
 C        -2.609733        -2.375355         0.844404
 C        -3.068157        -3.515844         0.037861
 O        -2.793528        -4.682811         0.302200
 H         1.482413        -0.313108        -1.480475
 H         1.896322         0.990918        -0.425255
 H         2.134177        -0.825277         0.165133
 H        -2.670735         0.597016         1.520702
 H        -4.270806         0.973265        -0.329625
 H        -2.870939         1.966687        -0.534680
 H        -2.868830         0.435091        -1.385330
 H        -1.540826        -2.357253         0.769535
 H        -2.810305        -2.671702         1.898076
 H        -3.632375        -3.226060        -0.865756
