19
Iteration:    33charge 0 multiplicity 1
 C         1.578401         0.209375        -0.143764
 C         0.194047        -0.127746        -0.198334
 C        -0.995478         0.022466         0.017379
 C        -2.434984        -0.032085         0.029133
 C        -3.260844         0.681281        -1.095136
 O        -2.708769        -1.457344        -0.101054
 C        -2.643717        -2.185610         1.103996
 C        -3.331898        -3.410047         0.796725
 O        -3.035762        -4.528653         1.226438
 H         1.751361         0.895799         0.682495
 H         2.332717        -0.605978        -0.142672
 H         1.870200         0.817772        -1.053669
 H        -2.743368         0.370353         0.961744
 H        -3.823917        -0.076294        -1.613522
 H        -3.952236         1.334365        -0.567405
 H        -2.715728         1.334767        -1.785792
 H        -1.613899        -2.433905         1.449190
 H        -3.203826        -1.644072         1.861191
 H        -4.101206        -3.339224         0.026523
