19
Iteration:   506charge 0 multiplicity 1
 C         1.718600         0.537798        -0.007476
 C         0.226881         0.186346         0.188461
 C        -1.005758         0.188273         0.069239
 C        -2.497160        -0.081229         0.207931
 C        -3.295396         0.806493        -0.789293
 O        -2.938088        -1.446597        -0.157293
 C        -2.317017        -2.533545         0.590364
 C        -3.234926        -3.707620         0.442282
 O        -3.325782        -4.695926         1.196784
 H         2.393412        -0.326997        -0.079416
 H         1.826344         1.113777        -0.930336
 H         2.007024         1.220314         0.697678
 H        -2.862486         0.151631         1.242740
 H        -4.076297         1.310533        -0.286093
 H        -2.495591         1.441505        -1.200719
 H        -3.635422         0.234740        -1.690766
 H        -1.290256        -2.899821         0.178996
 H        -2.076042        -2.223233         1.580748
 H        -3.582189        -3.730797        -0.613376
