19
Iteration:  4920
 C         1.805641        -0.036536         0.437748
 C         0.417034        -0.396949         0.759722
 C        -0.771345        -0.160987         0.977412
 C        -2.159383        -0.433151         1.073035
 C        -3.008886         0.880051         1.187492
 O        -2.774305        -1.078487        -0.044412
 C        -2.557046        -2.513782        -0.174961
 C        -3.441233        -3.051252        -1.239994
 O        -4.049744        -4.104534        -1.062627
 H         2.384157        -0.594857         1.204395
 H         2.186373        -0.507853        -0.492784
 H         2.179713         0.991571         0.452196
 H        -2.219336        -1.040199         2.053118
 H        -2.417839         1.529031         1.865774
 H        -3.343830         1.352631         0.236304
 H        -4.003786         0.776273         1.730438
 H        -1.494055        -2.871261        -0.362041
 H        -2.893153        -3.010665         0.814141
 H        -3.494665        -2.347131        -2.162193
