19
Iteration:   537charge 0 multiplicity 1
 C         1.659693         0.644082         0.019162
 C         0.243353         0.244705        -0.006786
 C        -0.900061        -0.187999         0.053855
 C        -2.367949        -0.093944         0.147748
 C        -3.316483         0.708891        -0.815741
 O        -2.905371        -1.429655        -0.018896
 C        -2.404010        -2.441059         0.819455
 C        -3.353890        -3.602235         0.449243
 O        -3.238251        -4.681621         0.977229
 H         2.257280         0.034660         0.771940
 H         2.120762         0.582463        -0.994048
 H         1.660744         1.687128         0.358131
 H        -2.583107         0.286601         1.163552
 H        -4.241793         0.983805        -0.301353
 H        -2.875677         1.719500        -1.011965
 H        -3.570467         0.123962        -1.746437
 H        -1.304232        -2.657835         0.843602
 H        -2.694629        -2.191557         1.895850
 H        -4.057163        -3.294576        -0.379631
