19
Iteration:  2036charge 0 multiplicity 1
 C         1.191570        -0.986180        -0.503372
 C        -0.148739        -0.649657         0.006758
 C        -1.264160        -0.306936         0.448683
 C        -2.701920         0.087519         0.654803
 C        -3.257907         1.096328        -0.315541
 O        -3.569921        -1.035462         0.529273
 C        -2.836591        -2.143617         0.994878
 C        -2.226525        -2.922331        -0.161311
 O        -1.908839        -4.059378         0.132477
 H         1.619170        -0.140655        -1.060146
 H         1.776634        -1.341347         0.317940
 H         1.127972        -1.696951        -1.323929
 H        -2.756620         0.543228         1.655583
 H        -3.865696         1.853883         0.185834
 H        -2.497509         1.539232        -0.880103
 H        -3.881271         0.536147        -1.056198
 H        -1.947367        -1.910710         1.587863
 H        -3.455777        -2.711017         1.709691
 H        -2.369865        -2.456244        -1.286198
