19
Iteration:  1731
 C         1.721473         0.146787        -0.229599
 C         0.264585         0.133073         0.065469
 C        -0.951144         0.098365         0.057519
 C        -2.400334        -0.045340         0.408400
 C        -3.347957         1.113424         0.001343
 O        -3.029842        -1.246226        -0.148698
 C        -2.626575        -2.464147         0.475842
 C        -3.333088        -3.770963         0.154625
 O        -2.969173        -4.699045         0.850648
 H         2.258632         1.098772        -0.066189
 H         2.277165        -0.468471         0.430988
 H         1.925073        -0.278232        -1.209899
 H        -2.359564        -0.209555         1.519121
 H        -4.367291         1.040650         0.429881
 H        -2.940790         2.179425         0.282899
 H        -3.281328         1.085152        -1.067933
 H        -1.591827        -2.811201         0.262640
 H        -2.652263        -2.363389         1.568847
 H        -4.066794        -3.904286        -0.658622
