19
Iteration:   654
 C         1.528485         0.474257        -0.344208
 C         0.170918         0.181340         0.189137
 C        -0.980792        -0.142343         0.360884
 C        -2.394489        -0.083617         0.192935
 C        -3.112590         0.868622        -0.761123
 O        -2.758348        -1.510119        -0.138627
 C        -2.812175        -2.234621         1.019924
 C        -3.400577        -3.627669         0.502013
 O        -2.864868        -4.733628         0.730105
 H         1.536676         1.483255        -0.739673
 H         2.185733         0.469066         0.501892
 H         1.916029        -0.231950        -1.145921
 H        -2.880341         0.095877         1.211834
 H        -4.161523         0.892346        -0.406448
 H        -2.780595         1.825295        -0.321141
 H        -3.047900         0.586936        -1.817111
 H        -1.836533        -2.459788         1.520507
 H        -3.425548        -1.723126         1.791094
 H        -4.359547        -3.509608        -0.042317
