19
Iteration:  4452charge 0 multiplicity 1
 C         1.719132        -0.478703         0.241818
 C         0.310016        -0.340279         0.272216
 C        -0.859842        -0.578931         0.602025
 C        -2.261931        -0.183527         1.038954
 C        -2.859402         1.235348         1.058937
 O        -3.281048        -0.922167         0.158933
 C        -3.225784        -2.338516         0.371740
 C        -3.088586        -3.078683        -0.884255
 O        -3.008022        -4.286843        -1.094799
 H         2.085811        -0.115660         1.228603
 H         2.085988        -1.485814         0.223934
 H         2.191768         0.077733        -0.595397
 H        -2.410551        -0.486760         2.058604
 H        -2.065089         1.912964         1.433916
 H        -3.400515         1.634663         0.253833
 H        -3.591080         1.298287         1.833918
 H        -2.340056        -2.692794         1.041989
 H        -4.306516        -2.459706         0.691779
 H        -3.290195        -2.388884        -1.747473
