19
Iteration:  1797charge 0 multiplicity 1
 C         1.478441         0.030311        -0.296247
 C         0.108496        -0.129795        -0.011034
 C        -1.096032         0.085781         0.169010
 C        -2.482496         0.134920         0.456215
 C        -3.147815         1.215867        -0.418852
 O        -3.071862        -1.303170         0.325490
 C        -2.434063        -2.433699         0.985750
 C        -3.035598        -3.602712         0.209775
 O        -2.969356        -4.820909         0.295902
 H         1.556462         0.429505        -1.347664
 H         1.803496         0.754243         0.427524
 H         1.906771        -0.946721        -0.135215
 H        -2.645017         0.461056         1.529194
 H        -4.238453         0.971041        -0.641994
 H        -3.034445         2.238509         0.048818
 H        -2.575697         1.276593        -1.360820
 H        -1.283812        -2.363265         0.908284
 H        -2.676990        -2.588780         2.049421
 H        -3.703696        -3.091227        -0.625759
