19
Iteration:  3321
 C         1.122738        -1.010801        -0.571769
 C        -0.071535        -0.611037         0.055333
 C        -1.184932        -0.224898         0.397924
 C        -2.535306         0.019999         0.950243
 C        -2.912632         1.382736         0.339606
 O        -3.565601        -0.983395         0.554143
 C        -3.252313        -2.363514         0.860981
 C        -2.425012        -3.014710        -0.401676
 O        -1.890134        -4.111921        -0.413502
 H         1.426775        -1.948560        -0.032519
 H         0.858436        -1.218349        -1.618481
 H         1.972820        -0.209153        -0.403589
 H        -2.624379        -0.047747         2.042109
 H        -2.109957         1.897390        -0.255274
 H        -3.826916         1.199131        -0.344068
 H        -3.169742         2.112649         1.108240
 H        -2.463939        -2.578054         1.598247
 H        -4.175147        -2.859282         1.216401
 H        -2.328368        -2.156455        -1.215469
