19
Iteration:   799
 C         1.513545        -0.148181         0.087642
 C         0.043601        -0.275007        -0.241104
 C        -1.114239         0.131057        -0.019387
 C        -2.569371         0.060474         0.212529
 C        -3.582734         0.965278        -0.582455
 O        -3.048363        -1.289378         0.139504
 C        -2.294050        -2.269250         1.003491
 C        -2.540508        -3.531791         0.224319
 O        -3.064783        -4.468286         0.721579
 H         1.768110        -1.005246         0.774662
 H         2.200581        -0.124449        -0.811025
 H         1.731097         0.761935         0.611062
 H        -2.610593         0.533328         1.235219
 H        -4.598885         0.572772        -0.312187
 H        -3.538121         1.933130        -0.078830
 H        -3.467064         0.920413        -1.725553
 H        -1.109673        -2.120769         1.028838
 H        -2.767437        -2.338211         2.040632
 H        -2.135917        -3.421979        -0.835127
