19
Iteration:  2019charge 0 multiplicity 1
 C         1.164390        -0.866576        -0.401108
 C        -0.173913        -0.688674        -0.010552
 C        -1.273653        -0.168512         0.276893
 C        -2.622448         0.148317         0.623297
 C        -3.264211         1.115242        -0.405628
 O        -3.451507        -1.020835         0.674799
 C        -2.810777        -2.219313         1.026782
 C        -2.352024        -3.043236        -0.127356
 O        -1.982917        -4.178019         0.053528
 H         1.630350         0.155400        -0.363606
 H         1.697557        -1.525967         0.343258
 H         1.192816        -1.302343        -1.426710
 H        -2.580681         0.592780         1.656829
 H        -3.841139         1.885535         0.111964
 H        -2.496017         1.712764        -1.006732
 H        -3.934499         0.538425        -1.050639
 H        -1.952572        -1.965703         1.699146
 H        -3.455247        -2.928514         1.560650
 H        -2.161698        -2.512635        -1.031762
