19
Iteration:  1942
 C         1.568933        -0.586488        -0.238556
 C         0.061304        -0.295042        -0.163273
 C        -1.170414        -0.175896         0.026798
 C        -2.550317         0.083907         0.586631
 C        -3.387082         0.813913        -0.375663
 O        -3.374013        -1.025616         0.715621
 C        -2.724792        -2.196392         1.107171
 C        -2.745642        -3.155764        -0.111154
 O        -2.367616        -4.281789         0.070117
 H         1.857069        -0.865684         0.786212
 H         1.655287        -1.462311        -0.877107
 H         2.112470         0.287748        -0.509976
 H        -2.279998         0.391640         1.588319
 H        -4.409411         0.464382        -0.206972
 H        -3.434133         1.890386        -0.230794
 H        -3.066804         0.583765        -1.453795
 H        -1.635548        -2.003895         1.382821
 H        -3.160288        -2.733870         1.959936
 H        -3.246663        -2.693503        -1.065686
