19
Iteration:  1306charge 0 multiplicity 1
 C         1.614147         0.305826        -0.103547
 C         0.149306         0.164385        -0.016022
 C        -1.028030        -0.088203         0.264475
 C        -2.569976        -0.119738         0.376372
 C        -3.102483         1.192800        -0.273335
 O        -3.018747        -1.368913        -0.211211
 C        -2.552358        -2.360975         0.694259
 C        -3.222306        -3.690461         0.326162
 O        -2.942637        -4.861230         0.649327
 H         2.065579        -0.704422        -0.090079
 H         1.841420         0.887700        -0.971010
 H         1.875917         0.882002         0.814741
 H        -2.930261        -0.123643         1.406239
 H        -2.746568         1.457426        -1.294382
 H        -4.196262         1.279681        -0.247145
 H        -2.659972         2.049399         0.276393
 H        -1.455586        -2.523672         0.526335
 H        -2.813948        -2.120085         1.763984
 H        -3.915965        -3.486729        -0.494459
