19
Iteration:  4549charge 0 multiplicity 1
 C         1.514516        -0.625723         0.112161
 C         0.115190        -0.490030         0.448086
 C        -0.929917        -0.215926         0.980273
 C        -2.348062        -0.158714         1.111494
 C        -2.902375         1.163095         0.947201
 O        -3.083044        -0.968859         0.109901
 C        -2.730090        -2.386577         0.322439
 C        -2.888410        -3.051874        -0.972217
 O        -3.348123        -4.189910        -1.117873
 H         1.502880        -0.243650        -0.964224
 H         2.226667         0.050902         0.564963
 H         1.920086        -1.648575         0.082247
 H        -2.567401        -0.520159         2.200568
 H        -2.541308         1.879563         1.813794
 H        -2.749690         1.798795         0.032776
 H        -3.981683         1.097249         1.118522
 H        -1.761792        -2.378992         0.698512
 H        -3.471878        -2.976388         0.874241
 H        -2.519582        -2.532926        -1.808323
