19
Iteration:   417
 C         1.517260         0.256517         0.047374
 C         0.090664        -0.082925         0.241091
 C        -1.114299         0.065206         0.159389
 C        -2.596944        -0.097216         0.141199
 C        -3.486069         0.951696        -0.708723
 O        -2.729447        -1.454025        -0.328251
 C        -2.101939        -2.589503         0.304308
 C        -3.067370        -3.640455         0.394510
 O        -3.199074        -4.212586         1.461666
 H         1.591396         0.713067        -0.989753
 H         1.952292         0.899646         0.834661
 H         2.111936        -0.606020         0.062697
 H        -2.834069        -0.004179         1.260671
 H        -4.365172         0.380485        -1.148164
 H        -3.846395         1.853932        -0.166982
 H        -2.927003         1.365818        -1.575962
 H        -1.169044        -2.977563        -0.177530
 H        -1.846852        -2.523613         1.352271
 H        -3.564328        -4.010617        -0.585282
