19
Iteration:  1304
 C         1.629513         0.297557        -0.093950
 C         0.151233         0.156172        -0.013144
 C        -1.024284        -0.096915         0.264975
 C        -2.571478        -0.108592         0.375482
 C        -3.117181         1.177716        -0.283562
 O        -3.035698        -1.358457        -0.217559
 C        -2.563234        -2.378005         0.693515
 C        -3.222221        -3.683421         0.318796
 O        -2.926886        -4.845123         0.658320
 H         2.120510        -0.704530        -0.133466
 H         1.882167         0.969249        -0.983857
 H         1.876496         0.872183         0.856173
 H        -2.949274        -0.089648         1.427073
 H        -2.876101         1.431593        -1.310903
 H        -4.183679         1.308342        -0.193155
 H        -2.585575         2.002318         0.306862
 H        -1.490707        -2.548331         0.471358
 H        -2.693944        -2.152160         1.799218
 H        -3.945542        -3.446809        -0.516209
