19
Iteration:  3017
 C         1.018157        -0.900049        -0.859687
 C        -0.112223        -0.613034         0.043326
 C        -1.221238        -0.437325         0.415115
 C        -2.429587         0.016544         0.982965
 C        -2.858054         1.404264         0.512725
 O        -3.629257        -0.926933         0.216088
 C        -3.290459        -2.256135         0.769155
 C        -2.409966        -3.137178        -0.255311
 O        -1.783437        -4.126298         0.027391
 H         1.332379        -1.923251        -0.860220
 H         0.720702        -0.562390        -1.917601
 H         2.054293        -0.399179        -0.750015
 H        -2.531618        -0.150846         2.063439
 H        -3.719584         1.892716         0.940141
 H        -2.005160         2.082410         0.438816
 H        -3.170580         1.198966        -0.519234
 H        -2.587084        -2.117308         1.595187
 H        -4.179979        -2.729678         1.062422
 H        -2.508194        -2.568085        -1.323355
