19
Iteration:  4848charge 0 multiplicity 1
 C         1.758127        -0.086533         0.393382
 C         0.399829        -0.162220         0.657081
 C        -0.731387        -0.136410         1.026972
 C        -2.258578        -0.418294         1.193698
 C        -2.781198         0.965740         1.051562
 O        -2.733031        -1.146459         0.092429
 C        -2.715199        -2.600483         0.032735
 C        -3.720814        -3.069312        -1.010520
 O        -3.827319        -4.217712        -1.428079
 H         2.041359        -0.851101        -0.461770
 H         2.244452         0.928596         0.044603
 H         2.460498        -0.195354         1.332270
 H        -2.549284        -0.962274         2.182952
 H        -2.700904         1.623888         1.889336
 H        -2.220019         1.474254         0.141388
 H        -3.830021         1.055141         0.783720
 H        -1.658407        -2.986496        -0.320178
 H        -2.885906        -3.247238         0.882727
 H        -4.223945        -2.130359        -1.373121
