19
Iteration:  3751
 C         1.364660        -0.686128        -0.441043
 C        -0.000373        -0.642066        -0.039809
 C        -1.133025        -0.745494         0.401809
 C        -2.450587        -0.242594         0.982757
 C        -2.673534         1.221068         0.703011
 O        -3.636766        -0.879536         0.462674
 C        -3.607062        -2.266855         0.584197
 C        -2.665729        -2.939283        -0.494563
 O        -1.930965        -3.909241        -0.426989
 H         1.495097        -0.666457        -1.557486
 H         1.969251         0.148027         0.024963
 H         1.892603        -1.663222         0.031471
 H        -2.584810        -0.244783         2.131391
 H        -1.722590         1.693039         0.392021
 H        -3.528025         1.487573         0.045459
 H        -3.000577         1.718342         1.592717
 H        -3.249380        -2.679141         1.528642
 H        -4.549818        -2.570628         0.093455
 H        -2.496665        -2.187650        -1.304117
