19
Iteration:   334charge 0 multiplicity 1
 C         1.580712         0.116594         0.169845
 C         0.124203         0.308470        -0.027262
 C        -1.106973         0.285360        -0.085121
 C        -2.460601        -0.057369         0.048234
 C        -3.376950         0.890730        -0.614414
 O        -2.773025        -1.420699        -0.510889
 C        -2.231563        -2.503827         0.337102
 C        -3.277942        -3.741023         0.657409
 O        -3.155670        -4.528699         1.603554
 H         1.822726         0.783494         0.972367
 H         1.702250        -0.848043         0.659567
 H         2.247352         0.224132        -0.734054
 H        -2.661849        -0.175292         1.133239
 H        -2.816037         1.721734        -0.855730
 H        -3.545661         0.358571        -1.539519
 H        -4.219423         1.166229         0.009730
 H        -1.476862        -3.061427        -0.255385
 H        -1.907294        -2.104640         1.338128
 H        -4.153912        -3.675864        -0.102439
