19
Iteration:  2580charge 0 multiplicity 1
 C         1.354494        -0.541869        -0.662607
 C         0.175787        -0.039607         0.083736
 C        -1.077189        -0.086229         0.277375
 C        -2.503070         0.004864         0.728947
 C        -3.342262         1.075393        -0.053780
 O        -3.166885        -1.195045         0.353049
 C        -2.533266        -2.257871         1.139981
 C        -2.558279        -3.314828         0.024123
 O        -2.977731        -4.430570        -0.078067
 H         2.035497         0.282442        -0.994819
 H         1.759301        -1.421029        -0.094914
 H         0.891267        -1.063308        -1.534893
 H        -2.446989         0.140267         1.856765
 H        -4.358661         1.211545         0.361558
 H        -2.763032         2.074897        -0.093816
 H        -3.329603         0.614155        -1.007245
 H        -1.532188        -1.856506         1.264929
 H        -2.999799        -2.449659         2.131557
 H        -1.998768        -2.812970        -0.819371
