19
Iteration:  3972
 C         1.155631        -1.445500        -0.451534
 C        -0.136445        -0.827469         0.152482
 C        -1.225943        -0.381001         0.525681
 C        -2.561933        -0.001594         1.044378
 C        -2.962596         1.472810         0.894813
 O        -3.607431        -0.940747         0.477523
 C        -3.199942        -2.292425         0.511989
 C        -2.390410        -2.739219        -0.682549
 O        -1.782735        -3.785939        -0.688836
 H         1.694757        -0.710305        -1.075794
 H         1.800803        -1.947081         0.281665
 H         0.667397        -2.324031        -1.050039
 H        -2.454151        -0.272964         2.100172
 H        -2.017508         1.994910         0.986563
 H        -3.338539         1.788512        -0.067937
 H        -3.551744         1.792457         1.764377
 H        -2.780351        -2.469224         1.531086
 H        -4.179773        -2.795351         0.392793
 H        -2.575594        -2.043582        -1.525432
