19
Iteration:  2636charge 0 multiplicity 1
 C         1.464437        -0.367966        -0.534999
 C        -0.001318        -0.428479        -0.263829
 C        -1.090156         0.003856         0.223128
 C        -2.465316         0.149308         0.808237
 C        -3.200171         1.056706        -0.138116
 O        -3.272658        -1.048163         0.812751
 C        -2.601997        -2.316830         1.009060
 C        -2.530819        -3.407655        -0.115003
 O        -2.997470        -4.508269        -0.136145
 H         1.768600         0.139537        -1.541249
 H         1.743841         0.303907         0.354771
 H         1.982052        -1.318335        -0.440790
 H        -2.400416         0.609896         1.830367
 H        -4.303002         0.789857        -0.028584
 H        -3.083684         2.121028         0.126473
 H        -2.862814         0.928623        -1.213927
 H        -1.532943        -2.161166         1.244416
 H        -2.959299        -2.904744         1.896364
 H        -1.799445        -3.088632        -0.987710
