19
Iteration:  1564charge 0 multiplicity 1
 C         1.573418         0.710919        -0.121784
 C         0.193172         0.312479        -0.139558
 C        -0.849705        -0.146688         0.246482
 C        -2.327319        -0.300131         0.552067
 C        -3.087532         0.828809        -0.101757
 O        -2.963629        -1.382886        -0.164183
 C        -2.213603        -2.558391         0.250037
 C        -3.295508        -3.739140         0.182067
 O        -3.624207        -4.562099         0.975810
 H         2.125031         0.092201        -0.774154
 H         1.799237         1.722857        -0.483475
 H         2.062002         0.626919         0.838220
 H        -2.573197        -0.334524         1.628972
 H        -3.038796         0.822864        -1.207162
 H        -4.081060         0.608014         0.311618
 H        -2.787113         1.913671         0.321807
 H        -1.369432        -2.758437        -0.434627
 H        -1.741086        -2.307384         1.185740
 H        -3.783665        -3.790439        -0.849127
