19
Iteration:   773
 C         1.460194        -0.003527        -0.035783
 C         0.013969        -0.362553         0.050492
 C        -1.131986        -0.027537        -0.090428
 C        -2.535864         0.135004         0.306182
 C        -3.471842         0.992381        -0.680959
 O        -3.033382        -1.225188         0.204493
 C        -2.284186        -2.273664         0.916319
 C        -2.582457        -3.577286         0.170677
 O        -3.085212        -4.538475         0.778694
 H         2.131711        -0.820045        -0.048279
 H         1.597179         0.636932        -0.856929
 H         1.703761         0.546847         0.924116
 H        -2.556895         0.637651         1.264885
 H        -4.442175         0.509297        -0.702095
 H        -3.736145         1.914384        -0.139099
 H        -3.107830         1.015972        -1.717708
 H        -1.196758        -2.186681         0.852380
 H        -2.572144        -2.323716         1.942680
 H        -2.400145        -3.531493        -0.952116
