19
Iteration:   724
 C         1.590736         0.070851        -0.202421
 C         0.152769         0.347673        -0.032821
 C        -0.987960         0.010060         0.351173
 C        -2.588903         0.068622         0.287235
 C        -3.203735         0.956562        -0.797494
 O        -3.121084        -1.340308         0.184488
 C        -2.534089        -2.405727         0.907461
 C        -2.964166        -3.685740         0.218762
 O        -2.986808        -4.719436         0.812298
 H         1.774627        -0.436967        -1.234132
 H         2.160138         1.073527        -0.275686
 H         1.922833        -0.582232         0.596901
 H        -2.925963         0.551512         1.227494
 H        -4.306203         0.924859        -0.700627
 H        -2.938942         2.005069        -0.730295
 H        -2.955594         0.360392        -1.710255
 H        -1.488022        -2.392009         0.965658
 H        -2.849062        -2.582399         1.969017
 H        -3.105294        -3.536365        -0.892835
