19
Iteration:    53
 C         1.704818         0.252804        -0.169951
 C         0.264083         0.064789        -0.094768
 C        -0.971500         0.055305        -0.120525
 C        -2.469158        -0.045059        -0.053568
 C        -3.307941         0.755626        -1.126663
 O        -2.643215        -1.478590        -0.023459
 C        -2.701873        -2.161163         1.225854
 C        -3.529663        -3.566378         0.880026
 O        -3.009205        -4.646350         1.113464
 H         2.025724         1.158223         0.314942
 H         2.264779        -0.617461         0.275209
 H         2.183355         0.268822        -1.228370
 H        -2.876657         0.361287         0.920088
 H        -4.153861         0.170523        -1.395320
 H        -3.575759         1.787376        -0.784668
 H        -2.718457         0.931826        -2.061577
 H        -1.631865        -2.398765         1.446293
 H        -3.183483        -1.588352         2.070090
 H        -4.604431        -3.577215         0.460673
