19
Iteration:  1212
 C         1.420112        -0.118968         0.194307
 C         0.047058         0.172195        -0.091448
 C        -1.159358         0.142284         0.056342
 C        -2.574349         0.075619         0.453787
 C        -3.247852         1.052138        -0.544421
 O        -3.022554        -1.315652         0.255059
 C        -2.149016        -2.387705         0.259050
 C        -3.155896        -3.587918         0.375387
 O        -2.849260        -4.731382         0.678066
 H         2.132517         0.379886        -0.525702
 H         1.641935         0.297121         1.249178
 H         1.629935        -1.198441         0.187902
 H        -2.775632         0.346367         1.527725
 H        -4.242395         0.619899        -0.916539
 H        -3.538391         1.961589         0.036946
 H        -2.631010         1.245292        -1.374885
 H        -1.605061        -2.451041        -0.714098
 H        -1.543209        -2.385111         1.184396
 H        -4.143924        -3.457274        -0.084903
