19
Iteration:  2804charge 0 multiplicity 1
 C         1.304355        -0.564444        -0.723632
 C         0.041849        -0.285989        -0.092289
 C        -1.106995        -0.228641         0.360296
 C        -2.485088         0.012330         0.708409
 C        -3.067503         1.314888         0.058122
 O        -3.305111        -1.163613         0.582353
 C        -2.836438        -2.433360         1.115913
 C        -2.741871        -3.194774        -0.116506
 O        -2.451618        -4.343806        -0.164731
 H         2.184795        -0.398031         0.023273
 H         1.184585        -1.597179        -1.041049
 H         1.368038         0.208826        -1.545109
 H        -2.615281         0.211340         1.799179
 H        -4.143081         1.360247         0.270315
 H        -2.413420         2.130270         0.600426
 H        -2.904083         1.379921        -1.022241
 H        -1.939970        -2.483156         1.702115
 H        -3.655187        -2.821435         1.742030
 H        -3.105792        -2.527466        -1.012910
