19
Iteration:   434
 C         1.487656         0.236345         0.000793
 C         0.069942         0.116519         0.163805
 C        -1.138973         0.112414         0.270771
 C        -2.561537        -0.145006         0.169866
 C        -3.299086         0.865095        -0.670989
 O        -2.812340        -1.481521        -0.419570
 C        -2.099181        -2.467907         0.323806
 C        -3.078714        -3.752120         0.371260
 O        -3.240986        -4.280539         1.477153
 H         1.704334         0.383513        -1.040871
 H         1.789901         1.131730         0.575213
 H         2.076526        -0.608738         0.536501
 H        -3.081617        -0.200181         1.100780
 H        -4.363804         0.663653        -0.531118
 H        -3.038207         1.831214        -0.233238
 H        -2.955351         0.946841        -1.708986
 H        -1.096035        -2.595943        -0.118186
 H        -1.929883        -2.252856         1.438710
 H        -3.676060        -3.908866        -0.546256
