19
Iteration:  3338charge 0 multiplicity 1
 C         1.235483        -0.976895        -0.539116
 C        -0.055736        -0.621582         0.018083
 C        -1.151772        -0.310421         0.457475
 C        -2.477955         0.033841         0.923870
 C        -3.047059         1.338079         0.305857
 O        -3.452913        -1.001616         0.584404
 C        -3.246893        -2.368744         0.818963
 C        -2.576936        -2.999385        -0.350378
 O        -1.915868        -4.018187        -0.422163
 H         1.961026        -1.539914         0.070208
 H         1.216177        -1.404380        -1.569750
 H         1.830402        -0.154576        -0.772435
 H        -2.403862         0.107705         2.038729
 H        -2.221867         1.673383        -0.293189
 H        -3.897673         1.093632        -0.270638
 H        -3.323800         1.973549         1.170529
 H        -2.998585        -2.536268         1.907202
 H        -4.248952        -2.820710         0.614487
 H        -2.996218        -2.411850        -1.191411
