19
Iteration:  4755charge 0 multiplicity 1
 C         1.886364        -0.179884         0.553951
 C         0.345891        -0.367065         0.485242
 C        -0.860971        -0.428069         0.629415
 C        -2.249505        -0.246052         1.016152
 C        -2.689195         1.191399         1.222866
 O        -3.129996        -0.989588         0.098252
 C        -2.958619        -2.427080         0.131063
 C        -3.654363        -3.205365        -0.905248
 O        -3.319342        -4.278672        -1.415804
 H         2.046039         0.891692         0.395252
 H         2.298775        -0.625285         1.579388
 H         2.291327        -0.739669        -0.285620
 H        -2.237990        -0.751834         2.043335
 H        -1.774343         1.726102         1.625008
 H        -2.904181         1.535270         0.251080
 H        -3.537445         1.362453         1.898877
 H        -1.966612        -2.703170        -0.144962
 H        -3.058365        -2.918006         1.153616
 H        -4.678425        -2.748645        -1.181441
