19
Iteration:  2148charge 0 multiplicity 1
 C         1.021461        -1.428052        -0.617537
 C        -0.328013        -0.904118        -0.219964
 C        -1.359635        -0.319538         0.109194
 C        -2.765535         0.019603         0.668149
 C        -3.210668         1.428546         0.327183
 O        -3.595176        -1.003110         0.128275
 C        -3.198554        -2.199387         0.760278
 C        -2.102488        -2.872355        -0.005502
 O        -1.278190        -3.676009         0.491530
 H         1.038545        -2.429646        -1.165583
 H         1.514513        -0.679485        -1.244212
 H         1.675472        -1.546964         0.222370
 H        -2.669612        -0.089817         1.775521
 H        -4.251552         1.422407         0.150839
 H        -2.907827         2.122820         1.138394
 H        -2.747157         1.798536        -0.552667
 H        -3.079571        -1.977155         1.836984
 H        -4.023304        -2.961859         0.597014
 H        -2.078238        -2.674835        -1.014000
