19
Iteration:    19
 C         1.625386         0.186483        -0.147945
 C         0.179316        -0.131294        -0.196726
 C        -1.024736         0.108609        -0.032672
 C        -2.474372        -0.069576         0.108764
 C        -3.164761         0.613466        -1.010670
 O        -2.871136        -1.426280        -0.175190
 C        -2.596416        -2.103331         1.030171
 C        -3.211999        -3.468875         0.717301
 O        -3.083534        -4.509306         1.334970
 H         1.883397         0.476186         0.865882
 H         2.272874        -0.694714        -0.400225
 H         1.733431         1.067414        -0.888388
 H        -2.902300         0.136762         1.116531
 H        -3.312198        -0.121748        -1.776093
 H        -4.202105         0.979744        -0.744784
 H        -2.486857         1.374534        -1.472922
 H        -1.506915        -2.070072         1.299169
 H        -3.152747        -1.741942         1.943451
 H        -3.894511        -3.288798        -0.172711
