19
Iteration:  2510charge 0 multiplicity 1
 C         1.343375        -0.445880        -0.564092
 C        -0.037496        -0.158080        -0.297377
 C        -1.053756         0.079617         0.209783
 C        -2.436828         0.051527         0.724425
 C        -3.139527         1.303541         0.134856
 O        -3.152997        -1.110932         0.248609
 C        -2.882788        -2.313717         1.033747
 C        -2.481690        -3.486359         0.055193
 O        -2.832609        -4.687909         0.129492
 H         1.855663        -0.667473         0.389933
 H         1.368230        -1.276761        -1.269367
 H         1.789377         0.409071        -1.118571
 H        -2.441938         0.045056         1.834584
 H        -4.196653         1.304010         0.460015
 H        -2.636047         2.172807         0.440618
 H        -3.127503         1.174319        -0.994720
 H        -1.968441        -2.316257         1.605467
 H        -3.737770        -2.487048         1.659206
 H        -1.730018        -3.161748        -0.699608
