19
Iteration:  2090charge 0 multiplicity 1
 C         1.033822        -1.270444        -0.566545
 C        -0.164808        -0.591193        -0.075689
 C        -1.290775        -0.098466         0.160595
 C        -2.621013         0.154550         0.721283
 C        -3.160847         1.336819        -0.153546
 O        -3.562629        -1.035881         0.551293
 C        -3.261039        -2.390966         0.906781
 C        -2.253392        -3.015154         0.004305
 O        -1.430611        -3.939421         0.193846
 H         0.976457        -1.256429        -1.658091
 H         1.897677        -0.702334        -0.241453
 H         1.015539        -2.292635        -0.134566
 H        -2.494859         0.418310         1.798746
 H        -4.259596         1.607172        -0.100122
 H        -2.668335         2.237856         0.124165
 H        -2.923649         1.065057        -1.249336
 H        -3.186048        -2.622171         2.006979
 H        -4.234264        -2.872971         0.500426
 H        -2.434474        -2.668180        -0.998237
