19
Iteration:  4854charge 0 multiplicity 1
 C         1.826560        -0.048994         0.395707
 C         0.415841        -0.151428         0.662323
 C        -0.763703        -0.146533         1.047644
 C        -2.235012        -0.441982         1.203578
 C        -2.816998         0.976608         1.030189
 O        -2.733485        -1.147254         0.085712
 C        -2.666090        -2.640641        -0.012989
 C        -3.673722        -3.057709        -0.988843
 O        -3.872671        -4.189030        -1.417377
 H         1.834916        -0.972441        -0.155962
 H         2.033549         0.766762        -0.264048
 H         2.319947        -0.333023         1.273264
 H        -2.600371        -0.859110         2.109564
 H        -2.613760         1.566884         1.960891
 H        -2.415636         1.381759         0.162062
 H        -3.906853         0.961098         0.789497
 H        -1.691947        -2.912750        -0.282274
 H        -3.005185        -3.148047         0.957236
 H        -4.171497        -2.146988        -1.424543
