19
Iteration:   907charge 0 multiplicity 1
 C         1.450190        -0.165594        -0.299601
 C        -0.002257        -0.206005         0.101561
 C        -1.160280         0.018413         0.470646
 C        -2.612258         0.026652         0.363171
 C        -3.314689         0.972781        -0.666777
 O        -2.929808        -1.276215        -0.100382
 C        -2.773307        -2.230591         0.907584
 C        -2.514043        -3.468922         0.218898
 O        -2.817156        -4.515030         0.808300
 H         1.709624         0.903021        -0.358807
 H         2.250866        -0.666034         0.275219
 H         1.501997        -0.384549        -1.353624
 H        -2.942582         0.191243         1.405112
 H        -4.056826         1.724536        -0.211268
 H        -2.594812         1.712162        -1.065123
 H        -3.818229         0.347881        -1.479225
 H        -1.926011        -1.919295         1.534034
 H        -3.613668        -2.368090         1.574113
 H        -2.288282        -3.465560        -0.852422
