19
Iteration:  3467charge 0 multiplicity 1
 C         1.344996        -0.719781        -0.462739
 C         0.003313        -0.653774        -0.045651
 C        -1.153357        -0.460191         0.215743
 C        -2.347030        -0.045927         0.879312
 C        -2.989600         1.299936         0.519425
 O        -3.537277        -0.973391         0.684851
 C        -3.228051        -2.275781         0.726177
 C        -2.596419        -2.988347        -0.511563
 O        -2.174318        -4.134841        -0.347783
 H         1.657268        -0.410294        -1.439521
 H         1.978699        -0.209044         0.310997
 H         1.524206        -1.834523        -0.479290
 H        -2.164564         0.019857         1.984094
 H        -2.875011         1.996873         1.354003
 H        -2.651185         1.663893        -0.455509
 H        -4.099049         1.128690         0.444352
 H        -2.621664        -2.599115         1.536771
 H        -4.170715        -2.818860         0.903642
 H        -2.446587        -2.283024        -1.488658
