19
Iteration:   259
 C         1.633228         0.448339        -0.020752
 C         0.215406         0.050633         0.026246
 C        -1.025373        -0.033370        -0.026183
 C        -2.493011        -0.149447         0.048309
 C        -3.125471         0.852547        -0.888360
 O        -3.056785        -1.415536        -0.181018
 C        -2.324986        -2.459371         0.550392
 C        -3.339362        -3.516512         0.810789
 O        -3.122532        -4.609671         1.314635
 H         2.122967        -0.050659         0.767465
 H         2.175332         0.107012        -0.906751
 H         1.731337         1.562604         0.188575
 H        -2.840864         0.202370         1.093696
 H        -4.123261         0.366531        -0.970297
 H        -3.155256         1.898908        -0.502433
 H        -2.591192         0.821917        -1.913747
 H        -1.437774        -2.905651         0.043627
 H        -2.046828        -2.008265         1.539287
 H        -4.315177        -3.138042         0.461862
