19
Iteration:   424
 C         1.483222         0.256424         0.038952
 C         0.078318        -0.004954         0.208526
 C        -1.144552         0.078354         0.224817
 C        -2.551309        -0.141487         0.132946
 C        -3.406640         0.958239        -0.694429
 O        -2.746185        -1.464164        -0.335915
 C        -2.095782        -2.544222         0.306610
 C        -3.061642        -3.743342         0.367495
 O        -3.216814        -4.215864         1.450817
 H         1.734820         0.510131        -0.974557
 H         1.851794         1.104944         0.629771
 H         2.106689        -0.695244         0.123394
 H        -2.887722        -0.043764         1.180784
 H        -4.427316         0.527499        -0.901575
 H        -3.567281         1.879740        -0.145988
 H        -2.967932         1.031322        -1.693613
 H        -1.088351        -2.820637        -0.114344
 H        -1.988651        -2.147422         1.372654
 H        -3.834704        -3.991326        -0.384795
