19
Iteration:   897
 C         1.386433        -0.170744        -0.261973
 C         0.012234        -0.207658         0.057599
 C        -1.093531         0.127136         0.393605
 C        -2.579638         0.097154         0.370624
 C        -3.359708         0.944679        -0.650790
 O        -2.894836        -1.218107        -0.120624
 C        -2.743905        -2.182276         0.950823
 C        -2.547698        -3.548705         0.268351
 O        -2.839544        -4.598282         0.764200
 H         1.847111         0.766840         0.086615
 H         1.888422        -1.017857         0.279823
 H         1.574682        -0.375902        -1.276697
 H        -3.052277         0.312492         1.336840
 H        -4.184419         1.374275         0.019112
 H        -2.763818         1.595324        -1.309658
 H        -3.899810         0.256189        -1.366510
 H        -1.791320        -2.097826         1.394937
 H        -3.579883        -2.281069         1.621160
 H        -2.026244        -3.402756        -0.686612
