19
Iteration:  4680charge 0 multiplicity 1
 C         1.782757        -0.487745         0.295011
 C         0.356941        -0.504205         0.596761
 C        -0.835143        -0.241974         0.723554
 C        -2.360334        -0.184805         1.120829
 C        -3.026690         1.192361         0.945802
 O        -3.141919        -1.076249         0.289249
 C        -2.602962        -2.363809         0.231617
 C        -3.317235        -3.030776        -1.008495
 O        -3.421240        -4.207551        -1.322554
 H         2.150041        -0.679186         1.285463
 H         1.793414        -1.309288        -0.371853
 H         2.282694         0.329004        -0.175466
 H        -2.385620        -0.449725         2.156904
 H        -2.622035         1.807150         1.793411
 H        -2.824987         1.629458         0.021335
 H        -4.093492         1.079141         1.134869
 H        -1.462654        -2.357244         0.107834
 H        -2.735096        -2.999888         1.089942
 H        -3.934622        -2.264338        -1.498677
