19
Iteration:  2713
 C         1.514428        -0.244822        -0.601419
 C         0.195144        -0.207693        -0.076946
 C        -1.046806        -0.346026         0.164418
 C        -2.417232         0.052864         0.721292
 C        -3.190910         1.066109        -0.133177
 O        -3.288914        -1.049886         0.847709
 C        -2.858629        -2.364184         1.206833
 C        -2.810243        -3.297447        -0.128777
 O        -2.743707        -4.497594        -0.263051
 H         1.870460        -1.224688        -1.008070
 H         1.655085         0.464145        -1.486892
 H         2.221262        -0.082223         0.191302
 H        -2.167192         0.486498         1.704584
 H        -4.055797         1.623525         0.329350
 H        -2.582601         1.782742        -0.637291
 H        -3.764913         0.457379        -0.932289
 H        -1.888579        -2.304548         1.612075
 H        -3.458103        -2.866992         2.005449
 H        -2.795736        -2.698840        -1.029816
