19
Iteration:  3594charge 0 multiplicity 1
 C         1.026090        -0.958975        -0.691737
 C        -0.028854        -0.594988         0.272852
 C        -1.117159        -0.109464         0.591984
 C        -2.451408         0.018970         0.995085
 C        -3.035353         1.487655         0.784106
 O        -3.292419        -0.876460         0.192440
 C        -3.159051        -2.235440         0.579466
 C        -2.296125        -3.202582        -0.484982
 O        -2.306701        -4.397935        -0.380373
 H         1.829655        -1.620916        -0.218335
 H         0.529139        -1.385351        -1.571741
 H         1.529479         0.014702        -0.844859
 H        -2.507218        -0.142552         2.073822
 H        -2.361987         2.209347         1.251575
 H        -2.970620         1.694263        -0.255037
 H        -4.124298         1.549185         1.069451
 H        -2.720603        -2.522586         1.535770
 H        -4.095458        -2.796314         0.555077
 H        -1.621541        -2.675325        -1.243212
