19
Iteration:  4883charge 0 multiplicity 1
 C         1.826837        -0.077834         0.356609
 C         0.487405        -0.097928         0.831571
 C        -0.694142        -0.377581         1.004519
 C        -2.244379        -0.421532         1.069950
 C        -3.033634         0.934812         1.051022
 O        -2.733624        -1.137278         0.013549
 C        -2.560725        -2.611265         0.008245
 C        -3.565009        -2.995102        -1.020132
 O        -3.980895        -4.093422        -1.308272
 H         2.066364        -1.186612         0.411507
 H         1.752680         0.231155        -0.694200
 H         2.529599         0.429279         1.096108
 H        -2.639014        -0.890563         2.065584
 H        -2.558441         1.702700         1.753363
 H        -3.049538         1.317469         0.007997
 H        -4.049698         0.621039         1.375596
 H        -1.458068        -2.742495        -0.342375
 H        -2.765115        -3.090333         0.959590
 H        -3.868378        -2.145844        -1.667001
