19
Iteration:  1176charge 0 multiplicity 1
 C         1.546553        -0.307804         0.014486
 C         0.090939         0.148763         0.141221
 C        -1.114852         0.341663         0.369674
 C        -2.600642         0.161751         0.431243
 C        -3.493130         0.905010        -0.660349
 O        -3.021169        -1.271413         0.135286
 C        -2.160833        -2.327507         0.287231
 C        -3.167266        -3.582594         0.406874
 O        -2.756638        -4.697970         0.622841
 H         2.241360         0.527952         0.011563
 H         1.729340        -0.773594         0.924168
 H         1.758255        -1.035898        -0.784475
 H        -3.001771         0.433900         1.455179
 H        -4.550390         0.860775        -0.410343
 H        -3.100247         1.920042        -0.840668
 H        -3.433404         0.397287        -1.688372
 H        -1.289004        -2.608285        -0.252152
 H        -1.738787        -2.223471         1.288035
 H        -4.230331        -3.273368         0.220506
