19
Iteration:  1559
 C         1.535672         0.719001        -0.117086
 C         0.197519         0.283527        -0.168469
 C        -0.850555        -0.154924         0.270600
 C        -2.296779        -0.283191         0.517355
 C        -3.102572         0.843374        -0.067173
 O        -2.931305        -1.385850        -0.174832
 C        -2.247967        -2.570187         0.266580
 C        -3.288369        -3.740556         0.157168
 O        -3.613921        -4.558286         0.984729
 H         2.207898         0.134371        -0.863442
 H         1.658692         1.803683        -0.374359
 H         1.992695         0.481746         0.883596
 H        -2.582977        -0.289365         1.596013
 H        -3.155810         0.882667        -1.149648
 H        -4.118828         0.795228         0.357671
 H        -2.593810         1.718107         0.095760
 H        -1.304423        -2.763307        -0.296197
 H        -1.861695        -2.314584         1.298115
 H        -3.758341        -3.737432        -0.880017
