19
Iteration:  2771charge 0 multiplicity 1
 C         1.413889        -0.374326        -0.662992
 C         0.050559        -0.344507        -0.194960
 C        -1.145651        -0.346133         0.237578
 C        -2.447718         0.046846         0.916786
 C        -2.993143         1.151849        -0.022941
 O        -3.470547        -0.996277         0.785397
 C        -2.834513        -2.336006         1.021887
 C        -2.751424        -3.267667        -0.158125
 O        -2.539906        -4.465544        -0.170042
 H         2.111203        -0.889043         0.099789
 H         1.577967        -0.715707        -1.678118
 H         1.678907         0.698932        -0.851845
 H        -2.346096         0.358337         1.978391
 H        -4.081249         1.158164         0.039264
 H        -2.582621         2.233536         0.023891
 H        -2.645654         0.743223        -0.959215
 H        -1.782575        -2.166067         1.125511
 H        -3.327267        -2.906840         1.782823
 H        -2.803455        -2.703107        -1.120701
