19
Iteration:  4603charge 0 multiplicity 1
 C         1.422438        -0.698706        -0.001501
 C         0.228798        -0.315908         0.712773
 C        -0.896754        -0.266852         1.173331
 C        -2.402181        -0.170053         1.080464
 C        -2.987027         1.258447         0.892814
 O        -3.001416        -1.058041         0.214952
 C        -2.492680        -2.367627         0.247353
 C        -3.005331        -3.059210        -1.040734
 O        -3.476131        -4.187829        -1.211803
 H         1.310281        -1.679907        -0.583591
 H         1.667534         0.088175        -0.711839
 H         2.223133        -0.782140         0.730416
 H        -2.714312        -0.498634         2.082406
 H        -2.467396         2.111751         1.441407
 H        -2.844460         1.640239        -0.166817
 H        -4.056774         1.112931         1.053900
 H        -1.350537        -2.237038         0.167875
 H        -2.828521        -3.051192         1.044940
 H        -2.580302        -2.533637        -1.993257
