19
Iteration:  3595charge 0 multiplicity 1
 C         1.024596        -0.962361        -0.688668
 C        -0.028434        -0.584906         0.272095
 C        -1.120598        -0.119383         0.586361
 C        -2.441554         0.015677         0.996697
 C        -3.035216         1.486593         0.784953
 O        -3.287289        -0.881957         0.192240
 C        -3.165435        -2.232822         0.583346
 C        -2.293353        -3.199107        -0.487562
 O        -2.307624        -4.398202        -0.379176
 H         1.796830        -1.604160        -0.207450
 H         0.580274        -1.409521        -1.566386
 H         1.499886         0.032936        -0.858871
 H        -2.512840        -0.142679         2.060710
 H        -2.398472         2.232171         1.253748
 H        -2.963433         1.722038        -0.248482
 H        -4.111431         1.535220         1.059307
 H        -2.711948        -2.511159         1.552975
 H        -4.124744        -2.791904         0.537788
 H        -1.656607        -2.629315        -1.251994
