19
Iteration:  3403
 C         1.366213        -0.749931        -0.359215
 C        -0.053965        -0.574706        -0.034899
 C        -1.258366        -0.533280         0.110428
 C        -2.464218        -0.057057         0.826940
 C        -2.812110         1.328276         0.384922
 O        -3.549102        -1.023550         0.657123
 C        -3.269377        -2.341464         0.942475
 C        -2.768552        -3.096781        -0.327061
 O        -1.943358        -3.959233        -0.522513
 H         2.006316         0.077394         0.011799
 H         1.665104        -1.762327         0.128409
 H         1.293806        -0.842222        -1.444892
 H        -2.274563        -0.084047         1.920620
 H        -1.876079         1.914501         0.485712
 H        -3.145180         1.531862        -0.637187
 H        -3.585014         1.849759         1.030330
 H        -2.553138        -2.452065         1.780689
 H        -4.226795        -2.810235         1.242040
 H        -3.145455        -2.601722        -1.288876
