19
Iteration:  2099
 C         1.054409        -1.301621        -0.569957
 C        -0.195210        -0.622099        -0.139879
 C        -1.241841        -0.159102         0.181282
 C        -2.654224         0.138140         0.709644
 C        -3.225535         1.348441        -0.075463
 O        -3.573065        -0.987275         0.560243
 C        -3.278524        -2.374139         0.824281
 C        -2.191503        -3.010432        -0.062720
 O        -1.436293        -3.865934         0.278734
 H         1.028807        -1.542496        -1.626886
 H         2.021321        -0.754191        -0.446034
 H         1.163512        -2.287006         0.002644
 H        -2.551361         0.345250         1.808228
 H        -4.360032         1.366317        -0.220159
 H        -2.756282         2.305348         0.305312
 H        -2.736113         1.219362        -1.095402
 H        -3.075139        -2.462850         1.927287
 H        -4.163284        -3.045094         0.537343
 H        -2.455858        -2.906384        -1.084291
