19
Iteration:  1457
 C         1.676428         0.621455        -0.226372
 C         0.251849         0.406950        -0.133854
 C        -0.852688         0.159212         0.232106
 C        -2.265732        -0.151893         0.507353
 C        -3.165126         0.813618        -0.213787
 O        -2.692414        -1.417600        -0.020144
 C        -2.755780        -2.578970         0.780280
 C        -3.307954        -3.757337         0.039206
 O        -3.485717        -4.809310         0.699606
 H         1.891020         1.669759        -0.524469
 H         2.088392         0.374247         0.771464
 H         2.100566        -0.089288        -1.000311
 H        -2.388257        -0.135348         1.610226
 H        -4.023042         1.084674         0.357296
 H        -2.807963         1.824327        -0.433174
 H        -3.277054         0.315260        -1.165310
 H        -1.743119        -2.939538         1.031360
 H        -3.309426        -2.289632         1.704892
 H        -3.514055        -3.571765        -1.114962
