19
Iteration:   653
 C         1.530166         0.481088        -0.343702
 C         0.170920         0.184647         0.190630
 C        -0.979104        -0.144359         0.350830
 C        -2.393675        -0.091867         0.199799
 C        -3.109425         0.861782        -0.758169
 O        -2.761432        -1.512330        -0.150328
 C        -2.818325        -2.230612         1.020264
 C        -3.402267        -3.626965         0.509965
 O        -2.866827        -4.726954         0.727979
 H         1.560301         1.478322        -0.694894
 H         2.193695         0.460184         0.479246
 H         1.890200        -0.219696        -1.139375
 H        -2.845356         0.081588         1.232210
 H        -4.178224         0.862680        -0.411673
 H        -2.787702         1.827244        -0.331601
 H        -3.008250         0.602667        -1.790174
 H        -1.803080        -2.445475         1.533130
 H        -3.429894        -1.748688         1.801245
 H        -4.359351        -3.514513        -0.025727
