19
Iteration:   700
 C         1.506655         0.203639        -0.264228
 C         0.099580         0.211239         0.016906
 C        -1.064736         0.273081         0.298247
 C        -2.503232         0.020697         0.393694
 C        -3.021677         0.819175        -0.741506
 O        -2.938874        -1.242432         0.035000
 C        -2.686850        -2.377721         0.908834
 C        -3.140975        -3.750517         0.307454
 O        -2.937168        -4.845860         0.796492
 H         1.658147         0.287123        -1.395161
 H         2.039234         1.090484         0.161240
 H         1.944557        -0.773830         0.041857
 H        -2.869354         0.381222         1.394527
 H        -4.006882         1.194930        -0.524425
 H        -2.385279         1.693621        -0.933341
 H        -3.062643        -0.038476        -1.516737
 H        -1.644661        -2.424936         1.189191
 H        -3.210771        -2.424457         1.900482
 H        -3.566583        -3.591510        -0.712978
