19
Iteration:    23
 C         1.610393         0.186317        -0.143481
 C         0.186710        -0.140048        -0.207214
 C        -1.019463         0.094098        -0.023040
 C        -2.468945        -0.053121         0.106412
 C        -3.175906         0.620717        -1.022222
 O        -2.827060        -1.441375        -0.168628
 C        -2.624993        -2.137795         1.043183
 C        -3.225072        -3.452414         0.769665
 O        -3.077250        -4.488321         1.289134
 H         1.850328         0.638685         0.842475
 H         2.317674        -0.619424        -0.362039
 H         1.732357         0.964277        -0.897363
 H        -2.918150         0.197890         1.038264
 H        -3.473228        -0.162962        -1.745436
 H        -4.098043         1.060272        -0.679539
 H        -2.590166         1.356368        -1.563102
 H        -1.556468        -2.128945         1.281614
 H        -3.165846        -1.791293         1.916004
 H        -3.873606        -3.279738        -0.093881
