19
Iteration:   818charge 0 multiplicity 1
 C         1.499995        -0.290982         0.093275
 C         0.056079         0.098387        -0.205135
 C        -1.150153         0.143607        -0.188029
 C        -2.525137         0.037888         0.289263
 C        -3.506146         0.860775        -0.487020
 O        -3.065176        -1.303144         0.116734
 C        -2.389368        -2.146143         0.968800
 C        -2.520048        -3.553820         0.310287
 O        -3.060321        -4.544323         0.666563
 H         1.489425        -0.939840         0.943856
 H         1.932113        -0.814422        -0.728133
 H         2.109946         0.605129         0.383533
 H        -2.562030         0.200318         1.363829
 H        -4.554625         0.826905        -0.306245
 H        -3.363141         1.939317        -0.428446
 H        -3.340503         0.393547        -1.541374
 H        -1.348210        -1.926080         1.073205
 H        -2.773303        -2.185435         1.967764
 H        -2.028511        -3.550400        -0.714345
