19
Iteration:  1830charge 0 multiplicity 1
 C         1.496921        -0.109586        -0.432460
 C         0.178462        -0.021006         0.135619
 C        -0.971004         0.014589         0.409420
 C        -2.475843         0.118291         0.579362
 C        -3.228052         0.887193        -0.492030
 O        -3.190302        -1.155421         0.465366
 C        -2.627592        -2.361670         0.829601
 C        -3.060595        -3.517782         0.021125
 O        -2.772790        -4.634887         0.299869
 H         1.559657        -0.502566        -1.501968
 H         2.002306         0.832245        -0.509988
 H         2.192775        -0.713425         0.140830
 H        -2.703425         0.646126         1.535562
 H        -4.325859         0.937555        -0.239397
 H        -2.883334         1.922739        -0.612135
 H        -3.089149         0.286284        -1.428303
 H        -1.484274        -2.240820         0.732913
 H        -2.830459        -2.629941         1.878126
 H        -3.632719        -3.231949        -0.903077
