19
Iteration:  2528
 C         1.374043        -0.470593        -0.613154
 C        -0.096793        -0.236453        -0.309862
 C        -1.124254         0.092953         0.310980
 C        -2.458380         0.272455         0.850965
 C        -3.253013         1.298168         0.034939
 O        -2.955352        -1.107669         0.363706
 C        -2.812186        -2.398102         0.950020
 C        -2.446403        -3.528326         0.016227
 O        -2.922845        -4.686767         0.085253
 H         1.858314        -0.307543         0.423006
 H         1.655672        -1.530497        -0.832256
 H         1.734758         0.147658        -1.406600
 H        -2.507747         0.418464         1.933439
 H        -4.310046         1.428052         0.398401
 H        -2.618054         2.217067         0.002838
 H        -3.378863         0.825831        -0.950651
 H        -1.936332        -2.177047         1.676257
 H        -3.821263        -2.672281         1.396250
 H        -1.677920        -3.217133        -0.785574
