19
Iteration:   267charge 0 multiplicity 1
 C         1.620426         0.424974         0.008964
 C         0.194173         0.030994         0.052251
 C        -1.002851        -0.045891        -0.059331
 C        -2.484487        -0.167471         0.072735
 C        -3.174269         0.765873        -0.815975
 O        -3.050393        -1.431399        -0.259421
 C        -2.314627        -2.396640         0.547318
 C        -3.325134        -3.470018         0.805713
 O        -3.113697        -4.547357         1.310889
 H         2.082170         0.016507         0.929108
 H         2.148246         0.054968        -0.865463
 H         1.727994         1.506649        -0.043924
 H        -2.632263         0.149811         1.188296
 H        -4.216140         0.597693        -0.802532
 H        -2.959661         1.804335        -0.575730
 H        -2.872013         0.496213        -1.808302
 H        -1.468002        -2.759820        -0.070057
 H        -1.911230        -1.948926         1.511178
 H        -4.297395        -3.190336         0.317234
