19
Iteration:  2042charge 0 multiplicity 1
 C         1.200866        -1.022308        -0.553651
 C        -0.154406        -0.614064         0.018671
 C        -1.235513        -0.336241         0.453108
 C        -2.748219         0.117568         0.668307
 C        -3.233060         1.100270        -0.301702
 O        -3.595717        -1.033183         0.494616
 C        -2.853578        -2.156582         1.008585
 C        -2.240138        -2.936519        -0.147114
 O        -1.857624        -4.033369         0.126120
 H         1.628169        -0.193687        -1.120908
 H         1.858878        -1.289713         0.338670
 H         1.003027        -1.944810        -1.187311
 H        -2.816008         0.524384         1.709756
 H        -3.882311         1.864504         0.194131
 H        -2.450834         1.750318        -0.898545
 H        -3.857126         0.522013        -0.957697
 H        -2.121003        -1.728984         1.745039
 H        -3.474335        -2.957312         1.516902
 H        -2.306613        -2.506076        -1.092559
