19
Iteration:  1400
 C         1.631911         0.447873        -0.361566
 C         0.259514         0.268104         0.153431
 C        -0.937558         0.156717         0.242979
 C        -2.405206        -0.101045         0.444996
 C        -3.226475         0.868487        -0.401271
 O        -2.628666        -1.488294         0.092044
 C        -2.716068        -2.514029         1.028075
 C        -3.265097        -3.580394         0.132822
 O        -3.318856        -4.774393         0.444388
 H         2.219022         1.041965         0.313546
 H         2.112522        -0.539874        -0.616305
 H         1.462940         0.986859        -1.287660
 H        -2.664110         0.073345         1.499920
 H        -3.621854         1.700875         0.144427
 H        -2.682920         1.028411        -1.309694
 H        -4.247563         0.389604        -0.658784
 H        -1.762607        -2.957818         1.389870
 H        -3.294288        -2.152831         1.908369
 H        -3.305055        -3.149321        -0.909369
