19
Iteration:    94charge 0 multiplicity 1
 C         1.739474         0.277708        -0.143201
 C         0.258384         0.525778        -0.220528
 C        -0.903028         0.093012        -0.057143
 C        -2.329558        -0.168510         0.052794
 C        -3.129459         0.508680        -1.050163
 O        -2.861151        -1.476992        -0.077695
 C        -2.777240        -2.183569         1.135126
 C        -3.581750        -3.574615         1.065187
 O        -3.038221        -4.651638         0.939243
 H         2.333627         1.098877        -0.536699
 H         2.072090        -0.028025         0.870494
 H         1.926309        -0.668835        -0.751787
 H        -2.712449         0.168117         1.096254
 H        -4.047344         0.936134        -0.640451
 H        -2.464686         1.337207        -1.555525
 H        -3.454876        -0.213011        -1.874183
 H        -1.764778        -2.601416         1.258085
 H        -2.999840        -1.428290         1.927804
 H        -4.671265        -3.506398         0.970018
