19
Iteration:  4373
 C         1.692076        -0.435984         0.054262
 C         0.236942        -0.488989         0.438979
 C        -0.942627        -0.570211         0.714558
 C        -2.364482        -0.279976         1.053365
 C        -2.640597         1.249115         0.935310
 O        -3.417361        -0.897998         0.261964
 C        -3.365339        -2.326569         0.388403
 C        -3.027117        -3.037605        -0.906733
 O        -2.816017        -4.234344        -1.077678
 H         2.279538        -1.362222         0.033136
 H         1.832150         0.046480        -0.908627
 H         2.255912         0.096172         0.817046
 H        -2.525639        -0.626983         2.092125
 H        -2.408644         1.950359         1.702429
 H        -2.092973         1.615333         0.040447
 H        -3.672183         1.486022         0.797208
 H        -2.582660        -2.834952         1.105183
 H        -4.412847        -2.407424         0.853846
 H        -2.872289        -2.373256        -1.738758
