19
Iteration:  2070charge 0 multiplicity 1
 C         1.004502        -1.136765        -0.541026
 C        -0.179426        -0.537750        -0.000242
 C        -1.255757        -0.189021         0.301280
 C        -2.644518         0.116162         0.593383
 C        -3.132196         1.249964        -0.239494
 O        -3.510054        -1.003040         0.528410
 C        -3.254231        -2.361430         1.042060
 C        -2.227114        -3.000863         0.008594
 O        -1.546650        -4.037308         0.075393
 H         1.186816        -0.690843        -1.552993
 H         1.908343        -0.964423         0.000658
 H         0.781623        -2.185235        -0.519591
 H        -2.604833         0.519276         1.623401
 H        -3.966668         1.758201         0.218132
 H        -2.371774         1.935219        -0.365250
 H        -3.478137         0.856972        -1.225617
 H        -2.754218        -2.178747         1.982959
 H        -4.177013        -2.925239         1.165619
 H        -2.177595        -2.359546        -1.029730
