19
Iteration:  1537
 C         1.544719         0.758485        -0.115067
 C         0.231969         0.125240        -0.144772
 C        -0.935904        -0.100203         0.167125
 C        -2.377832        -0.275981         0.489126
 C        -3.101338         1.090675        -0.051023
 O        -2.774500        -1.496642        -0.211331
 C        -2.344720        -2.696243         0.471516
 C        -3.332587        -3.737999         0.043334
 O        -3.528197        -4.522544         0.966131
 H         2.131154         0.704998        -1.109874
 H         1.454637         1.845522         0.063009
 H         2.289704         0.351104         0.607470
 H        -2.644114        -0.390321         1.574861
 H        -3.698476         0.895824        -0.936164
 H        -3.788566         1.214274         0.782871
 H        -2.541068         1.909997        -0.258723
 H        -1.309724        -3.004404         0.250874
 H        -2.345770        -2.511085         1.561906
 H        -3.784492        -3.911054        -1.009234
