19
Iteration:  4129charge 0 multiplicity 1
 C         1.066967        -1.172330        -0.204586
 C        -0.169146        -0.889583         0.240662
 C        -1.171554        -0.377667         0.682635
 C        -2.480288        -0.051221         1.188527
 C        -2.781024         1.367730         0.730880
 O        -3.424530        -0.915273         0.515430
 C        -3.156615        -2.251048         0.634645
 C        -2.560060        -2.804593        -0.846639
 O        -2.081831        -3.906245        -1.065419
 H         1.715567        -1.926615         0.331547
 H         1.188344        -1.484074        -1.314213
 H         1.681511        -0.261706        -0.114629
 H        -2.518411        -0.313933         2.285440
 H        -1.741053         1.830426         0.778420
 H        -3.063438         1.479403        -0.322815
 H        -3.628466         1.905534         1.182446
 H        -2.389312        -2.416882         1.393789
 H        -4.060274        -2.760408         0.957499
 H        -2.907923        -1.958320        -1.598312
