19
Iteration:   800
 C         1.510376        -0.157234         0.087707
 C         0.046457        -0.257872        -0.241307
 C        -1.107881         0.135388        -0.030411
 C        -2.576187         0.057280         0.223438
 C        -3.579192         0.960770        -0.583588
 O        -3.050890        -1.293236         0.135652
 C        -2.300162        -2.265913         1.003768
 C        -2.535503        -3.531383         0.227750
 O        -3.065379        -4.470292         0.718931
 H         1.741127        -1.015091         0.803730
 H         2.229074        -0.144093        -0.811309
 H         1.742166         0.766006         0.591051
 H        -2.608014         0.535390         1.250995
 H        -4.594701         0.546259        -0.286604
 H        -3.509069         1.940242        -0.091431
 H        -3.467519         0.913398        -1.693529
 H        -1.120839        -2.116672         1.004297
 H        -2.774247        -2.317778         2.052609
 H        -2.136142        -3.404390        -0.816618
