19
Iteration:  2977
 C         1.136700        -0.991242        -0.774302
 C        -0.077052        -0.517757        -0.260566
 C        -1.125427        -0.239107         0.346471
 C        -2.468025         0.072937         0.907622
 C        -3.085519         1.435214         0.512074
 O        -3.476968        -0.988668         0.432323
 C        -3.243524        -2.338310         0.740017
 C        -2.300871        -3.068714        -0.194120
 O        -1.994641        -4.206294         0.000743
 H         0.695677        -1.942273        -1.254349
 H         1.586687        -0.242295        -1.483191
 H         1.718011        -1.325085         0.036664
 H        -2.386348        -0.061080         2.014033
 H        -3.933344         1.681619         1.168522
 H        -2.308186         2.258490         0.680573
 H        -3.364397         1.354591        -0.513829
 H        -3.170075        -2.633507         1.827106
 H        -4.197086        -2.894990         0.383937
 H        -1.964676        -2.510418        -1.193963
