19
Iteration:  1354charge 0 multiplicity 1
 C         1.693590         0.395303        -0.378501
 C         0.228836         0.277166         0.122918
 C        -0.931233         0.148949         0.509817
 C        -2.411407        -0.071105         0.488602
 C        -3.255465         0.964916        -0.410475
 O        -2.779793        -1.385015        -0.065213
 C        -2.741002        -2.481831         0.859936
 C        -3.335000        -3.759863         0.082098
 O        -3.104616        -4.815982         0.598026
 H         2.261136        -0.107231         0.378185
 H         1.696144        -0.181444        -1.295238
 H         2.019791         1.384433        -0.547568
 H        -2.671356        -0.039603         1.543991
 H        -2.581294         1.821898        -0.656061
 H        -3.620976         0.390854        -1.294961
 H        -4.060053         1.585719         0.028516
 H        -1.646197        -2.712076         0.894450
 H        -3.189880        -2.369184         1.866445
 H        -3.888395        -3.471298        -0.802179
