19
Iteration:  3691charge 0 multiplicity 1
 C         1.396553        -0.742815        -0.327235
 C        -0.005564        -0.680178        -0.025769
 C        -1.177167        -0.502114         0.159109
 C        -2.403676        -0.117644         0.852428
 C        -2.725004         1.371542         0.814092
 O        -3.687719        -0.897956         0.502448
 C        -3.434445        -2.304883         0.590736
 C        -2.612951        -3.040813        -0.568716
 O        -2.045060        -4.067119        -0.351653
 H         1.666646         0.347731        -0.638222
 H         2.038757        -1.113456         0.512192
 H         1.363027        -1.299596        -1.269189
 H        -2.063644        -0.424695         1.896888
 H        -1.848112         1.987679         1.096222
 H        -3.007778         1.670034        -0.183986
 H        -3.609617         1.358710         1.554149
 H        -3.165701        -2.726020         1.602334
 H        -4.416926        -2.791121         0.554005
 H        -2.535386        -2.565239        -1.569406
