19
Iteration:  2464
 C         1.540989        -0.291396        -0.696318
 C         0.133301        -0.308537        -0.081989
 C        -1.052288        -0.308813        -0.000218
 C        -2.402513        -0.031596         0.575495
 C        -3.202125         1.262168         0.305246
 O        -3.368127        -1.058822         0.224332
 C        -3.135799        -2.239169         0.867591
 C        -2.546375        -3.378034         0.064969
 O        -2.601447        -4.524792         0.368340
 H         2.005222        -1.303054        -0.380258
 H         1.481917        -0.116187        -1.794097
 H         2.193228         0.491972        -0.327831
 H        -2.271369        -0.096206         1.680707
 H        -4.297022         1.054077         0.465140
 H        -2.894174         2.070609         0.998182
 H        -3.103974         1.613120        -0.745760
 H        -2.374936        -2.261302         1.665583
 H        -3.997150        -2.744069         1.335279
 H        -2.106124        -3.044412        -0.876220
