19
Iteration:  1284charge 0 multiplicity 1
 C         1.629196         0.292767        -0.008773
 C         0.193116         0.014705         0.069681
 C        -1.007601        -0.060765         0.189449
 C        -2.450910        -0.097814         0.317379
 C        -3.202927         1.100062        -0.288450
 O        -3.150534        -1.289330        -0.063932
 C        -2.540940        -2.406008         0.509813
 C        -3.305967        -3.689811         0.200247
 O        -2.808705        -4.676753         0.746340
 H         2.074384        -0.600887        -0.471164
 H         1.784391         1.151769        -0.630135
 H         2.070771         0.424672         0.997164
 H        -2.583927        -0.043265         1.401564
 H        -3.471642         0.833340        -1.322359
 H        -4.146559         1.202064         0.246035
 H        -2.691072         2.055047        -0.430894
 H        -1.488244        -2.572654         0.175344
 H        -2.640859        -2.325159         1.612136
 H        -4.182779        -3.733824        -0.440019
