19
Iteration:  1145charge 0 multiplicity 1
 C         1.389067        -0.219263        -0.063620
 C         0.024756        -0.086339         0.459805
 C        -1.144051         0.164241         0.185211
 C        -2.549070         0.147238         0.255019
 C        -3.428848         1.009787        -0.657166
 O        -3.026242        -1.236674         0.046256
 C        -2.219168        -2.255117         0.536914
 C        -3.102056        -3.574527         0.486529
 O        -2.656385        -4.693990         0.553024
 H         2.114291         0.485259         0.442034
 H         1.832550        -1.220250         0.148319
 H         1.447063        -0.076089        -1.177387
 H        -2.687901         0.344350         1.347012
 H        -4.247671         1.409024        -0.015276
 H        -2.792205         1.814390        -1.027998
 H        -3.930582         0.392275        -1.395233
 H        -1.295161        -2.514614        -0.048783
 H        -1.903187        -1.848457         1.533614
 H        -4.112263        -3.348868         0.108658
