19
Iteration:    68charge 0 multiplicity 1
 C         1.752581         0.223932        -0.166127
 C         0.269739         0.255890        -0.080247
 C        -0.960173         0.205673        -0.209190
 C        -2.380048        -0.047947        -0.004164
 C        -3.202697         0.664063        -1.102799
 O        -2.783266        -1.521569        -0.068230
 C        -2.785511        -2.286757         1.179121
 C        -3.485777        -3.532083         1.039433
 O        -3.031445        -4.675310         1.031839
 H         2.150479         1.259677         0.020804
 H         2.191837        -0.464142         0.538166
 H         1.973326        -0.063614        -1.158172
 H        -2.649664         0.276302         0.959314
 H        -4.300935         0.388745        -1.072372
 H        -3.128401         1.705447        -0.866375
 H        -2.812421         0.512779        -2.082096
 H        -1.815031        -2.455046         1.666045
 H        -3.405655        -1.728284         1.866548
 H        -4.511857        -3.305204         0.774057
