19
Iteration:  1848charge 0 multiplicity 1
 C         1.606519        -0.210574        -0.461162
 C         0.103723         0.092765         0.064718
 C        -0.943350        -0.134189         0.571133
 C        -2.472353         0.062425         0.594147
 C        -3.238969         0.831934        -0.538942
 O        -3.368972        -1.128705         0.505839
 C        -2.607057        -2.279737         0.863546
 C        -3.000531        -3.457008        -0.044287
 O        -2.681693        -4.548714         0.259625
 H         1.436677        -1.000597        -1.164541
 H         1.931327         0.681990        -1.117624
 H         2.090471        -0.567553         0.505191
 H        -2.710817         0.510370         1.558437
 H        -4.093997         1.184855        -0.040459
 H        -2.863849         1.799977        -0.996449
 H        -3.357845         0.115845        -1.279677
 H        -1.562040        -2.148314         0.698010
 H        -2.679327        -2.625917         1.911663
 H        -3.611847        -3.192137        -0.967913
