19
Iteration:  1666charge 0 multiplicity 1
 C         1.582996         0.378996        -0.151432
 C         0.107683         0.167095        -0.103685
 C        -1.018398        -0.045432         0.252821
 C        -2.405278        -0.234527         0.459003
 C        -3.253652         0.999815        -0.011376
 O        -2.842890        -1.393697        -0.179182
 C        -2.231527        -2.607283         0.254771
 C        -3.373741        -3.536438         0.201735
 O        -3.255951        -4.524728         0.945028
 H         2.077352         0.327923         0.849280
 H         2.041784        -0.427869        -0.644710
 H         1.979006         1.256222        -0.665494
 H        -2.570319        -0.412433         1.539628
 H        -3.154323         1.874592         0.641589
 H        -2.756054         1.461595        -0.973440
 H        -4.176694         0.553866        -0.316554
 H        -1.411237        -2.801326        -0.417432
 H        -1.902028        -2.480646         1.308014
 H        -4.308580        -3.348986        -0.464905
