19
Iteration:   914charge 0 multiplicity 1
 C         1.457190        -0.123036        -0.341882
 C         0.020876        -0.184248         0.157411
 C        -1.150934        -0.038395         0.463957
 C        -2.647428        -0.001490         0.354193
 C        -3.253287         1.040043        -0.651613
 O        -2.996953        -1.314908        -0.078664
 C        -2.763909        -2.230038         0.882971
 C        -2.540029        -3.511683         0.204099
 O        -2.779407        -4.469259         0.821437
 H         1.645575         0.947395        -0.504413
 H         2.221268        -0.519558         0.307684
 H         1.500098        -0.666891        -1.389625
 H        -3.165232         0.072907         1.349815
 H        -4.004967         1.674962        -0.339255
 H        -2.427387         1.642598        -1.019983
 H        -3.666550         0.439300        -1.480314
 H        -2.002504        -1.920397         1.713590
 H        -3.720790        -2.283631         1.519566
 H        -2.276167        -3.476378        -0.928384
