19
Iteration:  4463
 C         1.768816        -0.496113         0.230116
 C         0.312257        -0.368894         0.366721
 C        -0.896980        -0.418106         0.532282
 C        -2.221884        -0.188452         1.053036
 C        -2.932162         1.320802         1.078458
 O        -3.206748        -0.971009         0.204342
 C        -3.288781        -2.368903         0.390462
 C        -3.096986        -3.095731        -0.980776
 O        -3.040084        -4.295658        -1.096523
 H         2.298917         0.154617         0.961304
 H         1.872503        -1.536141         0.437927
 H         2.127793        -0.326059        -0.796249
 H        -2.388044        -0.584841         2.027040
 H        -2.090061         1.933326         1.435481
 H        -3.099074         1.645630         0.098944
 H        -3.711760         1.122474         1.758044
 H        -2.436503        -2.751985         1.072212
 H        -4.142675        -2.841310         0.988458
 H        -3.077605        -2.368795        -1.881851
