19
Iteration:  1861charge 0 multiplicity 1
 C         1.467000        -0.250711        -0.414524
 C         0.109441         0.037971         0.025979
 C        -1.000798        -0.140078         0.464980
 C        -2.561719         0.065803         0.597569
 C        -3.171766         0.872410        -0.537840
 O        -3.335758        -1.126945         0.613239
 C        -2.638845        -2.279885         0.872856
 C        -2.953165        -3.391908        -0.022333
 O        -2.615706        -4.562589         0.197484
 H         1.578968        -1.314484        -0.777844
 H         1.940735         0.457702        -1.114137
 H         2.282389        -0.162468         0.347720
 H        -2.696897         0.567323         1.566458
 H        -4.133771         1.279333        -0.272413
 H        -2.395341         1.532677        -0.939084
 H        -3.495499         0.254059        -1.318146
 H        -1.562282        -2.104037         0.673434
 H        -2.720307        -2.563872         1.914084
 H        -3.436464        -3.090590        -0.947509
