19
Iteration:   121
 C         1.672132         0.439766        -0.182535
 C         0.219767         0.179372        -0.154507
 C        -0.963707        -0.012708        -0.004715
 C        -2.380546        -0.091021         0.032030
 C        -3.107641         0.636745        -1.167594
 O        -2.814453        -1.533223         0.061206
 C        -2.603545        -2.272830         1.206183
 C        -3.528850        -3.476730         0.930930
 O        -3.112774        -4.625798         0.898205
 H         1.950895         1.046277        -1.081920
 H         1.998814         0.948411         0.744443
 H         2.246071        -0.496818        -0.135688
 H        -2.796038         0.275234         1.006943
 H        -3.636501         1.548036        -0.812525
 H        -2.468792         0.836673        -1.962700
 H        -3.885166        -0.000652        -1.534521
 H        -1.575475        -2.712367         1.289595
 H        -2.861123        -1.661441         2.138660
 H        -4.680597        -3.302254         1.015423
