19
Iteration:  1550charge 0 multiplicity 1
 C         1.544255         0.728260        -0.130598
 C         0.171018         0.211152        -0.178587
 C        -0.875800        -0.154323         0.283870
 C        -2.298615        -0.255585         0.432342
 C        -3.125181         0.930284        -0.031203
 O        -2.848145        -1.422282        -0.181624
 C        -2.312013        -2.615635         0.338697
 C        -3.263870        -3.728908         0.110773
 O        -3.581864        -4.536325         0.991627
 H         2.218213         0.397912        -0.934426
 H         1.450692         1.848826        -0.099329
 H         1.862806         0.410999         0.852093
 H        -2.404482        -0.398927         1.539864
 H        -3.353744         0.691093        -1.076463
 H        -4.030179         1.202603         0.449209
 H        -2.433848         1.767054         0.011733
 H        -1.368156        -2.839796        -0.156569
 H        -2.226676        -2.668562         1.416392
 H        -3.783249        -3.687271        -0.935347
