19
Iteration:  2112charge 0 multiplicity 1
 C         1.064124        -1.354648        -0.579397
 C        -0.211192        -0.674203        -0.222581
 C        -1.251749        -0.282173         0.256722
 C        -2.613432         0.089941         0.684961
 C        -3.243735         1.318575         0.005629
 O        -3.632582        -0.940588         0.500468
 C        -3.209678        -2.265757         0.755355
 C        -2.203916        -3.024321        -0.168715
 O        -1.409436        -3.773900         0.402828
 H         0.987568        -1.813547        -1.581477
 H         1.858612        -0.620137        -0.572290
 H         1.247182        -2.124775         0.198571
 H        -2.580760         0.319763         1.780058
 H        -4.342005         1.091405         0.004885
 H        -3.201931         2.170817         0.631734
 H        -2.921807         1.567550        -1.069514
 H        -2.769893        -2.482214         1.767828
 H        -4.246206        -2.755000         0.706558
 H        -2.145673        -2.794043        -1.168050
