19
Iteration:  2502
 C         1.384425        -0.420758        -0.598762
 C         0.046720        -0.139001        -0.265709
 C        -1.095879         0.057521         0.231823
 C        -2.449074        -0.009347         0.612193
 C        -3.122306         1.288296         0.181436
 O        -3.227043        -1.160163         0.246947
 C        -2.886140        -2.314744         0.998253
 C        -2.516738        -3.471841         0.098567
 O        -2.798671        -4.624913         0.157156
 H         1.828732        -0.899294         0.223525
 H         1.387508        -1.255530        -1.311344
 H         1.995720         0.427887        -1.038277
 H        -2.439649        -0.004392         1.735023
 H        -4.143734         1.205462         0.494931
 H        -2.582898         2.139591         0.663042
 H        -3.126675         1.381041        -0.903959
 H        -2.017118        -1.973502         1.572474
 H        -3.779445        -2.534554         1.601720
 H        -1.903333        -3.026350        -0.680751
