19
Iteration:  3348charge 0 multiplicity 1
 C         1.314961        -0.938030        -0.553404
 C         0.028962        -0.643793        -0.023666
 C        -1.080457        -0.423204         0.460507
 C        -2.412499         0.063104         0.977367
 C        -3.118951         1.283930         0.283213
 O        -3.466176        -1.004220         0.587094
 C        -3.296966        -2.332365         0.798069
 C        -2.650600        -2.990797        -0.367699
 O        -1.928409        -3.968690        -0.398089
 H         1.892972        -1.235702         0.318326
 H         1.296177        -1.736165        -1.387276
 H         1.569052         0.073248        -0.783050
 H        -2.538770         0.115915         2.073887
 H        -2.531221         2.002012        -0.291357
 H        -3.988962         1.025353        -0.235765
 H        -3.389506         2.015288         1.135931
 H        -2.814176        -2.723559         1.729011
 H        -4.308697        -2.821558         0.785770
 H        -3.115581        -2.572409        -1.347240
