19
Iteration:  2456charge 0 multiplicity 1
 C         1.490068        -0.278534        -0.669163
 C         0.142638        -0.383375        -0.147609
 C        -1.101249        -0.254538         0.026227
 C        -2.343236         0.003575         0.583940
 C        -3.156066         1.229815         0.282803
 O        -3.376215        -0.994249         0.243063
 C        -3.193453        -2.267245         0.873022
 C        -2.542210        -3.382572         0.026987
 O        -2.553017        -4.580362         0.395861
 H         2.030525        -1.217015        -0.616670
 H         1.557356         0.031057        -1.704891
 H         1.956669         0.520298        -0.053788
 H        -2.197602        -0.072053         1.689650
 H        -4.175738         0.916677         0.537610
 H        -2.811467         1.933967         0.955537
 H        -3.096683         1.613162        -0.774691
 H        -2.508956        -2.163198         1.707798
 H        -4.201215        -2.518489         1.164825
 H        -2.096499        -3.075942        -0.920923
