19
Iteration:  3850
 C         1.056924        -1.184316        -0.535941
 C        -0.189524        -0.710748         0.024842
 C        -1.165789        -0.244998         0.571099
 C        -2.504104        -0.065647         1.004093
 C        -2.876737         1.424190         1.012552
 O        -3.432536        -0.947224         0.235688
 C        -3.207753        -2.305905         0.559836
 C        -2.432445        -2.877430        -0.542185
 O        -2.021662        -4.033699        -0.521938
 H         1.292702        -2.028243         0.093280
 H         1.053940        -1.254873        -1.631610
 H         1.877456        -0.304236        -0.534642
 H        -2.339160        -0.353527         2.017063
 H        -2.742469         1.971277         1.963469
 H        -2.300557         1.970739         0.296752
 H        -3.924617         1.461447         0.613482
 H        -2.562998        -2.507138         1.393376
 H        -4.111923        -2.803892         0.322807
 H        -1.986998        -2.076220        -1.187136
