19
Iteration:  4244
 C         1.437463        -1.121378        -0.079510
 C         0.044680        -0.586609         0.181421
 C        -1.028205        -0.266690         0.727378
 C        -2.516050        -0.064584         1.083179
 C        -2.999002         1.385284         1.020168
 O        -3.363410        -0.904695         0.256779
 C        -3.068254        -2.303495         0.516019
 C        -2.516884        -2.953457        -0.743960
 O        -2.659192        -4.089671        -1.149888
 H         2.116764        -0.334224        -0.500245
 H         1.735614        -1.491251         0.904103
 H         1.453633        -2.053843        -0.771913
 H        -2.619835        -0.147196         2.118400
 H        -2.311913         2.111196         1.525740
 H        -3.150745         1.822901        -0.012083
 H        -4.025576         1.444816         1.363523
 H        -2.358878        -2.501290         1.273773
 H        -3.812656        -2.867635         1.008492
 H        -1.770205        -2.337307        -1.203601
