19
Iteration:  1624charge 0 multiplicity 1
 C         1.699018         0.527844        -0.234301
 C         0.317408         0.222197         0.209274
 C        -0.872652         0.151489         0.192063
 C        -2.366508        -0.146418         0.542179
 C        -3.345340         0.870106        -0.183404
 O        -2.875761        -1.392369        -0.001022
 C        -2.193980        -2.673525         0.029683
 C        -3.371721        -3.718287         0.186053
 O        -3.530705        -4.584152         1.014430
 H         2.404605        -0.221559         0.287411
 H         1.602012         0.343202        -1.325169
 H         1.915526         1.570632         0.064951
 H        -2.466121        -0.087718         1.639000
 H        -2.945200         1.898137        -0.450318
 H        -3.914638         0.460468        -1.086103
 H        -4.068562         1.061553         0.577150
 H        -1.843990        -2.944262        -1.006733
 H        -1.396532        -2.895595         0.828297
 H        -4.044375        -3.584585        -0.692120
