19
Iteration:  1342
 C         1.579675         0.348607        -0.294769
 C         0.161402         0.278526         0.082084
 C        -1.011618         0.126785         0.360757
 C        -2.472412        -0.095091         0.463905
 C        -3.121642         1.132301        -0.356172
 O        -2.771304        -1.409866        -0.052414
 C        -2.675561        -2.503492         0.778349
 C        -3.330744        -3.732581         0.177846
 O        -3.055196        -4.854520         0.607850
 H         2.212085        -0.325995         0.266160
 H         1.752814         0.078814        -1.310372
 H         2.011780         1.313930        -0.163914
 H        -2.852711        -0.067065         1.481713
 H        -2.262806         1.629724        -0.841872
 H        -3.719354         0.735952        -1.241241
 H        -3.753885         1.715432         0.273295
 H        -1.649588        -2.858618         1.058337
 H        -3.105237        -2.216238         1.765220
 H        -3.812742        -3.669052        -0.787360
