19
Iteration:  4488
 C         1.723809        -0.578282         0.186972
 C         0.289851        -0.401927         0.492139
 C        -0.866562        -0.012921         0.559057
 C        -2.275090        -0.221340         1.039801
 C        -2.864259         1.171433         1.013963
 O        -3.234928        -0.996230         0.244390
 C        -3.167020        -2.402911         0.354479
 C        -3.060135        -3.078150        -0.961978
 O        -3.128404        -4.295539        -1.118124
 H         2.173504         0.406560         0.310122
 H         2.172563        -1.389330         0.820469
 H         1.842126        -0.861870        -0.895077
 H        -2.391016        -0.648834         2.045103
 H        -2.153961         1.587951         1.722714
 H        -2.595678         1.618527         0.073238
 H        -3.912119         1.120863         1.400060
 H        -2.403678        -2.850562         1.145517
 H        -4.085118        -2.849456         0.830401
 H        -3.068206        -2.376420        -1.812476
