19
Iteration:   602
 C         1.713578         0.687771        -0.107579
 C         0.312468         0.346358        -0.162613
 C        -0.814320        -0.109139         0.101613
 C        -2.351436        -0.081041         0.155722
 C        -3.114485         0.947894        -0.823860
 O        -2.958436        -1.477459        -0.017581
 C        -2.870382        -2.449994         1.045486
 C        -3.605732        -3.800620         0.700996
 O        -2.928877        -4.850785         0.720698
 H         1.920486         1.369948         0.820820
 H         2.456826        -0.170856         0.095984
 H         2.009147         1.098047        -1.144797
 H        -2.541876         0.210966         1.191591
 H        -4.053855         0.449694        -1.015100
 H        -3.208826         1.897313        -0.232683
 H        -2.399564         1.166314        -1.718153
 H        -1.983890        -2.814083         1.482695
 H        -3.423252        -1.965740         1.951225
 H        -4.664831        -3.726338         0.325647
