19
Iteration:  1081
 C         1.578923        -0.101809         0.007339
 C         0.089023         0.120261        -0.170928
 C        -1.113655         0.036703         0.141896
 C        -2.477403         0.040754         0.342702
 C        -3.173250         1.047266        -0.550844
 O        -3.162747        -1.254824        -0.008878
 C        -2.860674        -2.269855         0.837900
 C        -3.205156        -3.744244         0.473676
 O        -2.371558        -4.617218         0.545437
 H         1.742082        -0.820368         0.849778
 H         2.132790        -0.666175        -0.816370
 H         2.094172         0.856658         0.149541
 H        -2.611241         0.329480         1.404626
 H        -4.119698         1.361321        -0.082209
 H        -2.497336         1.830912        -0.866573
 H        -3.448407         0.700418        -1.501705
 H        -1.851402        -2.215251         1.367798
 H        -3.525123        -2.237387         1.735726
 H        -4.262572        -3.954558         0.111165
