19
Iteration:  2576
 C         1.348988        -0.526797        -0.687693
 C         0.201292        -0.076592         0.081850
 C        -1.072989        -0.014191         0.283898
 C        -2.498186         0.027863         0.761602
 C        -3.335918         1.071384        -0.036557
 O        -3.176791        -1.196777         0.339481
 C        -2.554509        -2.276590         1.127164
 C        -2.555462        -3.334411         0.032692
 O        -2.973749        -4.435186        -0.066349
 H         2.230935         0.075539        -0.862112
 H         1.767398        -1.344776        -0.113420
 H         0.904517        -0.984704        -1.607509
 H        -2.546035         0.060477         1.862079
 H        -4.336254         1.224597         0.309026
 H        -2.799317         1.998918        -0.192752
 H        -3.480190         0.565180        -1.025910
 H        -1.548834        -1.905566         1.228597
 H        -3.116643        -2.418596         2.027689
 H        -1.927091        -2.817651        -0.826630
