19
Iteration:  4961
 C         1.853734        -0.104538         0.574506
 C         0.376420        -0.139059         0.612817
 C        -0.807761        -0.408885         0.790035
 C        -2.262309        -0.424036         1.023906
 C        -2.858149         0.866731         1.387193
 O        -2.917974        -1.049789        -0.136728
 C        -2.527871        -2.335714        -0.180431
 C        -3.324108        -3.171125        -1.229759
 O        -4.083741        -4.109341        -0.993372
 H         2.220625         0.349494         1.541831
 H         2.217582        -1.118471         0.519210
 H         2.197727         0.471066        -0.310409
 H        -2.558399        -1.134352         1.796221
 H        -2.502349         1.183014         2.430618
 H        -2.500293         1.617585         0.747960
 H        -3.949866         0.603879         1.430267
 H        -1.446501        -2.380787        -0.451509
 H        -2.552077        -2.834127         0.757413
 H        -3.390927        -2.811109        -2.253467
