19
Iteration:  1823charge 0 multiplicity 1
 C         1.524346        -0.086852        -0.424807
 C         0.182742        -0.075066         0.146501
 C        -1.068542         0.083636         0.324638
 C        -2.498197         0.085849         0.556899
 C        -3.205923         0.942525        -0.476922
 O        -3.123696        -1.134783         0.464135
 C        -2.596348        -2.378094         0.859396
 C        -3.070353        -3.517683         0.042339
 O        -2.802501        -4.702981         0.303525
 H         1.439634        -0.271180        -1.491775
 H         1.851564         0.979772        -0.362012
 H         2.104437        -0.824731         0.131574
 H        -2.660217         0.551866         1.561179
 H        -4.317539         0.957948        -0.360175
 H        -2.854602         1.961157        -0.490047
 H        -2.809410         0.481415        -1.462049
 H        -1.520504        -2.416093         0.781222
 H        -2.806964        -2.667985         1.924366
 H        -3.675393        -3.220366        -0.908975
