19
Iteration:   740charge 0 multiplicity 1
 C         1.604887         0.051448        -0.166047
 C         0.119687         0.159025         0.066104
 C        -1.103082         0.032531         0.135318
 C        -2.549134        -0.022698         0.294498
 C        -3.248371         0.895525        -0.763404
 O        -3.211007        -1.289359         0.224339
 C        -2.437363        -2.325533         0.907271
 C        -2.792443        -3.638902         0.216313
 O        -3.036334        -4.652237         0.783295
 H         1.766627        -0.710552        -0.883423
 H         2.096217         0.914231        -0.538966
 H         2.088023        -0.271652         0.784596
 H        -2.764417         0.394842         1.290469
 H        -4.329088         0.728403        -0.783593
 H        -3.121179         1.945796        -0.399151
 H        -2.892686         0.990806        -1.776888
 H        -1.310360        -2.136376         0.761691
 H        -2.620336        -2.279683         1.975996
 H        -2.954242        -3.552681        -0.889099
