19
Iteration:  2383
 C         1.409914        -0.352047        -0.805956
 C         0.119769        -0.150795        -0.073709
 C        -1.086668        -0.504694         0.137890
 C        -2.517459        -0.208167         0.691809
 C        -2.817866         1.203109         0.269491
 O        -3.611835        -1.005696         0.093982
 C        -3.452583        -2.281093         0.779258
 C        -2.515450        -3.275908         0.048960
 O        -2.185105        -4.322517         0.569258
 H         1.250789        -0.424132        -1.869486
 H         2.065323         0.549287        -0.745084
 H         1.939689        -1.239226        -0.294954
 H        -2.632044        -0.361855         1.778311
 H        -3.540298         1.639761         0.945657
 H        -1.888198         1.738358         0.111723
 H        -3.254763         1.103590        -0.761828
 H        -3.028123        -2.260955         1.849205
 H        -4.423643        -2.855513         0.667286
 H        -2.263396        -3.011255        -0.934754
