19
Iteration:  3382charge 0 multiplicity 1
 C         1.406489        -0.824915        -0.455725
 C         0.056692        -0.643988        -0.003474
 C        -1.122871        -0.413270         0.257190
 C        -2.457762        -0.111915         0.876334
 C        -2.952005         1.282090         0.357860
 O        -3.627285        -0.994364         0.651145
 C        -3.242030        -2.377767         0.826263
 C        -2.787825        -3.004566        -0.409340
 O        -1.978454        -3.878093        -0.376851
 H         2.070826        -0.287525         0.289082
 H         1.837776        -1.895806        -0.557266
 H         1.571543        -0.394046        -1.453190
 H        -2.245607         0.027052         1.962711
 H        -2.148026         1.855734        -0.119422
 H        -3.727001         1.156835        -0.446587
 H        -3.523856         1.753045         1.201758
 H        -2.413043        -2.557657         1.583754
 H        -4.195598        -2.843746         1.130839
 H        -3.189116        -2.917397        -1.454427
