19
Iteration:   869charge 0 multiplicity 1
 C         1.471916        -0.351067        -0.105967
 C         0.090945         0.112817         0.006707
 C        -1.105289         0.393902         0.034671
 C        -2.630915         0.139139         0.304096
 C        -3.480391         1.025716        -0.644541
 O        -2.916175        -1.263623        -0.006548
 C        -2.633254        -2.308161         1.055416
 C        -2.479728        -3.668549         0.329907
 O        -2.961803        -4.744567         0.698022
 H         2.115820         0.010996         0.735897
 H         1.463754        -1.465884        -0.112745
 H         1.912395        -0.015972        -1.119511
 H        -3.017978         0.380827         1.332832
 H        -4.201180         1.578399        -0.044135
 H        -2.865192         1.853569        -1.059536
 H        -4.040976         0.505378        -1.366850
 H        -1.572634        -2.079093         1.541084
 H        -3.427836        -2.412883         1.878347
 H        -1.970159        -3.567775        -0.683699
