19
Iteration:   262charge 0 multiplicity 1
 C         1.629490         0.446139        -0.014365
 C         0.210901         0.037564         0.042318
 C        -1.021629        -0.034550        -0.041214
 C        -2.500635        -0.164368         0.059378
 C        -3.135171         0.820826        -0.848842
 O        -3.060576        -1.416508        -0.216647
 C        -2.313431        -2.436305         0.554306
 C        -3.331399        -3.493690         0.812307
 O        -3.117413        -4.586920         1.313405
 H         2.089996        -0.065005         0.863694
 H         2.196104         0.074148        -0.899432
 H         1.729111         1.550623         0.095816
 H        -2.720756         0.202934         1.027972
 H        -4.206417         0.374122        -0.899565
 H        -3.068203         1.873655        -0.526855
 H        -2.690815         0.657950        -1.873357
 H        -1.472046        -2.855824        -0.003912
 H        -2.029282        -1.991772         1.485787
 H        -4.302033        -3.104800         0.360191
