19
Iteration:  3526charge 0 multiplicity 1
 C         1.124918        -0.931694        -0.614918
 C        -0.082147        -0.394122        -0.011178
 C        -1.067127        -0.177878         0.657140
 C        -2.499242        -0.031614         1.031096
 C        -2.934005         1.323112         0.630897
 O        -3.342408        -0.988892         0.261193
 C        -3.206728        -2.321110         0.717450
 C        -2.387266        -3.057881        -0.390249
 O        -2.284436        -4.286447        -0.439850
 H         0.772333        -1.766388        -1.327519
 H         1.678520        -0.110776        -1.197132
 H         1.796022        -1.198612         0.207153
 H        -2.687301        -0.335367         2.081275
 H        -2.139979         2.087681         0.707056
 H        -3.027072         1.296055        -0.494436
 H        -3.894438         1.671750         1.009169
 H        -2.691529        -2.381132         1.714429
 H        -4.205483        -2.730321         0.778156
 H        -1.796753        -2.236798        -0.956700
