19
Iteration:  3497
 C         1.331333        -0.856474        -0.629075
 C         0.084983        -0.516986         0.074008
 C        -1.054050        -0.232770         0.418934
 C        -2.449709         0.023920         0.951609
 C        -3.037229         1.388703         0.562736
 O        -3.486518        -1.003550         0.527215
 C        -3.315285        -2.341090         0.766352
 C        -2.476967        -3.083011        -0.448958
 O        -2.200601        -4.270513        -0.457444
 H         1.191224        -1.158386        -1.646832
 H         1.953049        -0.024475        -0.544505
 H         1.661201        -1.753709        -0.040655
 H        -2.462234        -0.072063         2.053249
 H        -2.579963         2.184886         1.132708
 H        -2.787370         1.658029        -0.434978
 H        -4.154503         1.468927         0.587288
 H        -3.029225        -2.678202         1.805299
 H        -4.350749        -2.784694         0.604772
 H        -2.285079        -2.248466        -1.069933
