19
Iteration:   935
 C         1.370423        -0.057938        -0.358465
 C         0.037148        -0.047947         0.225207
 C        -1.179135        -0.095857         0.388273
 C        -2.587339         0.016974         0.336811
 C        -2.980697         1.110903        -0.644270
 O        -3.209394        -1.233182        -0.116505
 C        -2.915703        -2.290964         0.852350
 C        -2.588543        -3.603190         0.277298
 O        -2.663772        -4.650586         0.852030
 H         1.453394         0.787179        -1.067971
 H         2.218879        -0.007435         0.307935
 H         1.441089        -0.954458        -1.053247
 H        -2.897901         0.233677         1.380243
 H        -3.743980         1.706870        -0.263250
 H        -2.181899         1.830070        -0.708069
 H        -3.327345         0.732241        -1.591390
 H        -1.934933        -1.932942         1.261615
 H        -3.551527        -2.314806         1.770405
 H        -2.237054        -3.552220        -0.788667
