19
Iteration:   850charge 0 multiplicity 1
 C         1.402541        -0.396944        -0.024686
 C         0.084593         0.362197        -0.008523
 C        -1.116286         0.268803        -0.088267
 C        -2.483446         0.092699         0.156946
 C        -3.530387         1.072107        -0.580292
 O        -2.974863        -1.368738         0.139775
 C        -2.539913        -2.319386         1.045955
 C        -2.456714        -3.644175         0.264746
 O        -3.026228        -4.653616         0.711384
 H         1.789862        -0.504075         0.966358
 H         1.242155        -1.348497        -0.463862
 H         2.198736         0.071999        -0.685873
 H        -2.415798         0.405116         1.208023
 H        -4.340375         1.346719         0.020756
 H        -2.915815         1.874325        -1.024622
 H        -3.903843         0.483179        -1.477978
 H        -1.610877        -2.206162         1.495592
 H        -3.310909        -2.559532         1.741709
 H        -1.897506        -3.641070        -0.658249
