19
Iteration:  4969charge 0 multiplicity 1
 C         1.798033        -0.123231         0.615357
 C         0.363463        -0.105095         0.612801
 C        -0.797735        -0.391578         0.772462
 C        -2.243223        -0.481072         0.992157
 C        -2.807578         0.851940         1.405862
 O        -2.975190        -1.034016        -0.146157
 C        -2.521525        -2.390049        -0.199211
 C        -3.361245        -3.129685        -1.222725
 O        -4.041801        -4.093086        -0.963371
 H         2.334110         0.498756         1.353403
 H         2.304156        -1.085896         0.616334
 H         2.195211         0.250350        -0.327556
 H        -2.360684        -1.092474         1.877026
 H        -2.572846         0.991209         2.453949
 H        -2.619262         1.623943         0.704645
 H        -3.853037         0.884922         1.267736
 H        -1.488420        -2.388308        -0.493996
 H        -2.586042        -2.885986         0.776840
 H        -3.139653        -2.737376        -2.328190
