19
Iteration:   775
 C         1.448937        -0.021511        -0.028096
 C         0.027546        -0.370692         0.029189
 C        -1.122741        -0.033902        -0.076185
 C        -2.548611         0.141020         0.287562
 C        -3.500298         1.007619        -0.673466
 O        -3.010547        -1.238815         0.216057
 C        -2.290509        -2.255658         0.909850
 C        -2.574071        -3.592766         0.168483
 O        -3.084947        -4.524069         0.775547
 H         2.155755        -0.827506         0.044875
 H         1.615235         0.644549        -0.848190
 H         1.637741         0.591292         0.881662
 H        -2.583949         0.653123         1.265227
 H        -4.441575         0.479952        -0.673056
 H        -3.712068         1.919754        -0.113718
 H        -3.111689         1.026035        -1.775923
 H        -1.118596        -2.137768         0.868786
 H        -2.641687        -2.348424         1.963977
 H        -2.416716        -3.510464        -0.951045
