19
Iteration:  3037
 C         1.004644        -0.845906        -0.869818
 C        -0.134640        -0.766286        -0.058832
 C        -1.199072        -0.530471         0.542288
 C        -2.561982        -0.051647         0.902301
 C        -2.852055         1.392198         0.433971
 O        -3.474657        -0.880992         0.366426
 C        -3.242647        -2.222962         0.714103
 C        -2.504249        -3.120345        -0.264020
 O        -1.750610        -4.007846         0.040191
 H         1.625173        -1.666201        -0.644324
 H         0.817745        -0.960769        -1.900171
 H         1.708721         0.034115        -0.784268
 H        -2.742137         0.021939         1.981264
 H        -3.830878         1.704462         0.853168
 H        -2.092246         2.056526         0.805897
 H        -2.962221         1.525403        -0.681670
 H        -2.904150        -2.300877         1.752428
 H        -4.205824        -2.768754         0.634677
 H        -2.760175        -2.880570        -1.394913
