19
Iteration:  3413
 C         1.281472        -0.757777        -0.314619
 C        -0.087014        -0.544125        -0.100765
 C        -1.272240        -0.541067         0.133444
 C        -2.476953        -0.132621         0.791595
 C        -2.784296         1.371609         0.391038
 O        -3.537338        -0.968939         0.644995
 C        -3.275664        -2.353519         0.991603
 C        -2.728383        -3.084243        -0.334672
 O        -1.944608        -4.013998        -0.550802
 H         1.851878         0.177159        -0.246534
 H         1.924558        -1.553381         0.263534
 H         1.673685        -1.056663        -1.320151
 H        -2.167517         0.136003         1.801112
 H        -1.894325         1.838106         0.870411
 H        -2.835625         1.525089        -0.672931
 H        -3.699734         1.560757         1.069690
 H        -2.493731        -2.461616         1.712345
 H        -4.231566        -2.682260         1.416931
 H        -3.149999        -2.459660        -1.191433
