19
Iteration:  3973charge 0 multiplicity 1
 C         1.145160        -1.436086        -0.441820
 C        -0.140131        -0.833039         0.154744
 C        -1.227420        -0.387297         0.515767
 C        -2.561118        -0.003743         1.041326
 C        -2.950847         1.463030         0.901277
 O        -3.612777        -0.945660         0.481025
 C        -3.199561        -2.278153         0.511355
 C        -2.391969        -2.739640        -0.686051
 O        -1.780733        -3.781037        -0.685988
 H         1.693701        -0.721680        -1.116241
 H         1.840437        -1.928530         0.291395
 H         0.679094        -2.328479        -1.053221
 H        -2.445637        -0.240279         2.090258
 H        -2.019624         2.042125         0.992353
 H        -3.321759         1.739635        -0.098414
 H        -3.538947         1.816643         1.726965
 H        -2.772609        -2.536752         1.507169
 H        -4.161887        -2.800818         0.400636
 H        -2.583789        -2.022019        -1.520181
