19
Iteration:   664charge 0 multiplicity 1
 C         1.507347         0.425706        -0.322078
 C         0.195059         0.123116         0.124651
 C        -0.976101        -0.041061         0.440184
 C        -2.467016        -0.084965         0.173917
 C        -3.133159         0.945044        -0.775892
 O        -2.730579        -1.429931        -0.064206
 C        -2.797287        -2.356388         1.029280
 C        -3.344079        -3.675347         0.480558
 O        -2.880618        -4.735141         0.733306
 H         1.382347         1.228014        -0.993006
 H         2.207184         0.657539         0.435776
 H         1.955900        -0.401162        -0.940294
 H        -3.053151         0.235877         1.089424
 H        -4.203088         1.039686        -0.454791
 H        -2.580161         1.921952        -0.855653
 H        -3.208189         0.747039        -1.834040
 H        -1.742605        -2.598622         1.485987
 H        -3.476161        -1.889378         1.751005
 H        -4.159400        -3.571500        -0.257238
