19
Iteration:   186
 C         1.673973         0.520630        -0.272840
 C         0.214648         0.294374         0.021436
 C        -0.955115        -0.084645         0.244254
 C        -2.440243        -0.149500         0.141203
 C        -2.950071         0.662191        -1.128718
 O        -3.059965        -1.427773        -0.003962
 C        -2.526145        -2.389121         0.832471
 C        -3.497979        -3.524279         0.868812
 O        -3.115393        -4.659664         1.069514
 H         2.087816        -0.238534        -1.014011
 H         1.820351         1.488277        -0.820158
 H         2.293256         0.439478         0.654933
 H        -2.764295         0.419391         1.102178
 H        -2.161962         0.775460        -1.948777
 H        -3.545378        -0.143196        -1.518784
 H        -3.588176         1.538481        -0.968265
 H        -1.598722        -2.735835         0.342725
 H        -2.302216        -2.133951         1.904954
 H        -4.529680        -3.195511         0.690105
