19
Iteration:   609
 C         1.703883         0.670046        -0.140640
 C         0.301444         0.319974        -0.086849
 C        -0.834857        -0.050215         0.120210
 C        -2.311980        -0.168649         0.146132
 C        -3.064064         0.914563        -0.766835
 O        -2.951631        -1.468430        -0.068282
 C        -2.947513        -2.458450         1.059026
 C        -3.598041        -3.783900         0.690316
 O        -2.895454        -4.757780         0.724613
 H         1.934904         1.529562         0.442892
 H         2.261727        -0.187921         0.148025
 H         1.972022         0.956675        -1.189588
 H        -2.684835         0.091203         1.175185
 H        -4.031316         0.438479        -1.091358
 H        -3.333567         1.818969        -0.211841
 H        -2.532836         1.012282        -1.666574
 H        -1.893033        -2.841870         1.246243
 H        -3.301805        -2.011092         1.976997
 H        -4.671381        -3.744538         0.340122
