19
Iteration:  3952charge 0 multiplicity 1
 C         1.014303        -1.480153        -0.456867
 C        -0.071493        -0.755533         0.081968
 C        -1.092133        -0.302717         0.613946
 C        -2.554199        -0.005319         1.040502
 C        -3.054366         1.489504         0.972308
 O        -3.497511        -0.867539         0.350357
 C        -3.257632        -2.286829         0.573437
 C        -2.381203        -2.820092        -0.622331
 O        -1.795697        -3.890504        -0.735535
 H         1.924006        -0.846013        -0.663574
 H         1.409333        -2.286922         0.242011
 H         0.828120        -2.005629        -1.474262
 H        -2.584990        -0.215632         2.099596
 H        -2.343049         2.320455         0.992258
 H        -3.611769         1.560061         0.009599
 H        -3.714059         1.717029         1.771599
 H        -2.725597        -2.638180         1.427626
 H        -4.233853        -2.764577         0.585231
 H        -2.327200        -1.964132        -1.367826
