19
Iteration:  3873
 C         1.017441        -1.345880        -0.517888
 C        -0.125701        -0.652237         0.057113
 C        -1.172880        -0.238378         0.504019
 C        -2.579383        -0.008660         1.110831
 C        -3.017837         1.497013         1.028580
 O        -3.422907        -0.822408         0.312652
 C        -3.153929        -2.190063         0.527349
 C        -2.260356        -2.975340        -0.613638
 O        -1.976649        -4.181683        -0.600689
 H         1.540146        -1.908307         0.235578
 H         0.605468        -1.820091        -1.401414
 H         1.584596        -0.530648        -1.141960
 H        -2.447726        -0.233965         2.132081
 H        -2.759674         1.809787         2.030202
 H        -2.471441         2.131415         0.406474
 H        -4.128431         1.621782         0.848936
 H        -2.587980        -2.256564         1.411303
 H        -4.095232        -2.647694         0.368883
 H        -2.170866        -2.334011        -1.539526
