19
Iteration:  3592
 C         1.031175        -0.952015        -0.693307
 C        -0.032272        -0.614731         0.273056
 C        -1.103489        -0.091737         0.602306
 C        -2.476545         0.030411         0.992032
 C        -3.036189         1.486465         0.783400
 O        -3.302794        -0.866355         0.195215
 C        -3.143590        -2.245057         0.565549
 C        -2.301317        -3.204399        -0.477358
 O        -2.305304        -4.398872        -0.382725
 H         1.862956        -1.642496        -0.264202
 H         0.442553        -1.334074        -1.583743
 H         1.592330        -0.029042        -0.838694
 H        -2.507570        -0.159638         2.106704
 H        -2.296828         2.165107         1.259474
 H        -2.986917         1.644428        -0.303944
 H        -4.118073         1.578342         1.093728
 H        -2.725532        -2.525476         1.518294
 H        -4.061793        -2.794279         0.588422
 H        -1.567685        -2.768785        -1.217216
