19
Iteration:    17charge 0 multiplicity 1
 C         1.629840         0.186506        -0.157139
 C         0.171416        -0.121993        -0.188324
 C        -1.020262         0.109390        -0.035004
 C        -2.477163        -0.078103         0.103052
 C        -3.164183         0.621997        -1.009125
 O        -2.888319        -1.418636        -0.171641
 C        -2.582718        -2.096890         1.025555
 C        -3.205640        -3.474144         0.694982
 O        -3.086166        -4.519650         1.355151
 H         1.905303         0.422092         0.892971
 H         2.231742        -0.691254        -0.425099
 H         1.760435         1.048931        -0.830512
 H        -2.874866         0.143597         1.163051
 H        -3.246678        -0.140037        -1.830821
 H        -4.199799         0.950529        -0.783730
 H        -2.484256         1.387291        -1.413345
 H        -1.509743        -2.065226         1.298613
 H        -3.150118        -1.699140         1.936552
 H        -3.910300        -3.330967        -0.206588
