19
Iteration:  3544
 C         1.053858        -0.921935        -0.634593
 C        -0.153406        -0.404076         0.036895
 C        -1.181617        -0.346728         0.680554
 C        -2.522252        -0.049237         1.070640
 C        -2.978651         1.403658         0.650895
 O        -3.206958        -0.905211         0.211801
 C        -3.051821        -2.254848         0.597040
 C        -2.234835        -3.082467        -0.349392
 O        -2.377961        -4.318868        -0.400996
 H         0.864277        -1.940827        -0.847839
 H         1.161168        -0.340885        -1.583163
 H         1.911618        -1.007344         0.063123
 H        -2.779600        -0.009200         2.153582
 H        -2.128408         2.107137         0.699822
 H        -3.330947         1.408711        -0.431334
 H        -3.834158         1.728314         1.223193
 H        -2.660110        -2.526377         1.568212
 H        -4.027945        -2.786786         0.604664
 H        -1.832971        -2.382379        -1.140452
