19
Iteration:   528
 C         1.626075         0.617077         0.012299
 C         0.269882         0.219507         0.063574
 C        -0.901132        -0.098344         0.114916
 C        -2.328542        -0.074341         0.151908
 C        -3.352146         0.730285        -0.802400
 O        -2.924200        -1.414488        -0.086216
 C        -2.390516        -2.375488         0.733624
 C        -3.275298        -3.664202         0.451896
 O        -3.309282        -4.730742         1.046261
 H         2.255870        -0.169402         0.470312
 H         2.035432         0.760808        -0.996712
 H         1.739663         1.537914         0.427601
 H        -2.671674         0.270885         1.165756
 H        -4.132749         0.871200        -0.127268
 H        -2.876211         1.540234        -1.357199
 H        -3.595247         0.012705        -1.648710
 H        -1.218205        -2.389519         0.478850
 H        -2.387937        -2.214036         1.794221
 H        -4.055536        -3.385429        -0.335995
