19
Iteration:  3175
 C         1.111206        -1.202800        -0.622543
 C        -0.198179        -0.702246        -0.286099
 C        -1.222160        -0.279684         0.281557
 C        -2.564174         0.069347         0.900366
 C        -3.061898         1.497893         0.719464
 O        -3.493709        -0.945689         0.356827
 C        -3.148848        -2.266129         0.734800
 C        -2.422493        -3.056984        -0.351904
 O        -1.730939        -4.033813        -0.079122
 H         1.805288        -0.491016        -1.235918
 H         1.495122        -1.191722         0.417905
 H         1.070524        -2.111600        -1.191762
 H        -2.485222         0.003430         1.991249
 H        -3.515739         1.958652         1.596211
 H        -2.273335         2.031770         0.289850
 H        -3.868738         1.497570        -0.090880
 H        -2.619981        -2.258242         1.709297
 H        -4.021065        -2.881615         0.911797
 H        -2.745489        -2.793410        -1.439205
