19
Iteration:  2236
 C         1.129918        -1.278679        -0.831155
 C        -0.244043        -0.838925        -0.271818
 C        -1.120768        -0.202173         0.274594
 C        -2.615122        -0.024087         0.772263
 C        -3.380906         1.368467         0.444054
 O        -3.436748        -0.922319         0.025250
 C        -3.385233        -2.279454         0.473772
 C        -2.078543        -2.961422         0.052982
 O        -1.546724        -3.778159         0.748062
 H         1.729026        -1.525971         0.070208
 H         1.039481        -2.215709        -1.346583
 H         1.536230        -0.448345        -1.339518
 H        -2.738046        -0.250680         1.856707
 H        -4.144590         1.586817         1.152096
 H        -2.704225         2.265003         0.383184
 H        -3.802819         1.235001        -0.485318
 H        -3.629345        -2.384354         1.576250
 H        -4.119728        -2.882820        -0.153365
 H        -1.910890        -2.759276        -1.129347
