19
Iteration:    78charge 0 multiplicity 1
 C         1.696022         0.234553        -0.179702
 C         0.292414         0.369588        -0.093811
 C        -0.923692         0.256922        -0.198910
 C        -2.331024        -0.111185        -0.001837
 C        -3.134241         0.605836        -1.031914
 O        -2.862878        -1.544946        -0.093740
 C        -2.757709        -2.221530         1.187895
 C        -3.538325        -3.576436         1.010806
 O        -3.043066        -4.665468         1.006648
 H         2.263627         1.192754        -0.159957
 H         2.026424        -0.351921         0.686135
 H         2.066371        -0.310696        -1.019581
 H        -2.620632         0.200344         0.962729
 H        -4.228050         0.460505        -0.852815
 H        -2.855403         1.597765        -1.171191
 H        -2.896806         0.110945        -1.954837
 H        -1.706614        -2.222129         1.509287
 H        -3.396737        -1.743521         1.937160
 H        -4.648303        -3.485987         1.078841
