19
Iteration:   525
 C         1.617902         0.602773         0.001755
 C         0.279020         0.208169         0.084679
 C        -0.904812        -0.054227         0.127691
 C        -2.350364        -0.077172         0.148771
 C        -3.333711         0.729868        -0.800597
 O        -2.931437        -1.397023        -0.107488
 C        -2.377530        -2.374633         0.704041
 C        -3.236809        -3.668518         0.452832
 O        -3.333188        -4.749686         1.070237
 H         2.295054        -0.209236         0.417889
 H         1.975389         0.786412        -1.044132
 H         1.834569         1.574966         0.581364
 H        -2.632263         0.210253         1.170081
 H        -4.190639         0.890130        -0.099239
 H        -2.903984         1.557694        -1.424127
 H        -3.639034        -0.023042        -1.566558
 H        -1.305604        -2.412513         0.351454
 H        -2.330878        -2.174172         1.831853
 H        -4.055497        -3.481864        -0.311466
