19
Iteration:   301charge 0 multiplicity 1
 C         1.636825         0.267570         0.105350
 C         0.181976         0.103720         0.031663
 C        -1.038152         0.044443        -0.043716
 C        -2.450897        -0.053336        -0.032918
 C        -3.451989         0.920717        -0.689220
 O        -2.820510        -1.507375        -0.402065
 C        -2.277205        -2.514130         0.452509
 C        -3.361509        -3.555656         0.699973
 O        -3.079669        -4.463230         1.454599
 H         1.883149         0.524718         1.120701
 H         2.158534        -0.659510        -0.117624
 H         2.079512         1.109008        -0.465861
 H        -2.755689        -0.108786         1.046760
 H        -3.715654         1.633277         0.016796
 H        -2.998760         1.454805        -1.526536
 H        -4.295788         0.392450        -1.108142
 H        -1.310642        -2.899579         0.033435
 H        -1.953472        -2.194326         1.492852
 H        -4.411480        -3.506426         0.319514
