19
Iteration:   490charge 0 multiplicity 1
 C         1.562659         0.454550         0.000598
 C         0.148471         0.288832         0.146786
 C        -1.053947         0.196528         0.122005
 C        -2.504369        -0.110311         0.164648
 C        -3.191456         0.951013        -0.788754
 O        -2.843049        -1.508419        -0.140481
 C        -2.271496        -2.616825         0.517976
 C        -3.195203        -3.836260         0.328798
 O        -3.300028        -4.550146         1.316822
 H         1.969209        -0.527642        -0.324288
 H         1.783696         1.207710        -0.789336
 H         2.120481         0.695080         1.017952
 H        -2.802612        -0.000856         1.201635
 H        -4.069851         1.535128        -0.330059
 H        -2.548001         1.764009        -1.137402
 H        -3.634847         0.417178        -1.611695
 H        -1.274952        -2.869882         0.091651
 H        -2.153220        -2.547183         1.670242
 H        -3.900451        -3.892498        -0.565663
