19
Iteration:  2779
 C         1.377791        -0.419120        -0.684561
 C        -0.006430        -0.271398        -0.149120
 C        -1.101334        -0.425753         0.299822
 C        -2.441222         0.041342         0.787880
 C        -2.996909         1.218454         0.002888
 O        -3.434083        -1.063661         0.759247
 C        -2.810859        -2.296441         1.067516
 C        -2.740257        -3.243587        -0.194858
 O        -2.522609        -4.451933        -0.170373
 H         2.063330        -0.745231         0.146655
 H         1.373413        -1.090133        -1.608641
 H         1.614080         0.599099        -0.915235
 H        -2.426994         0.273237         1.861609
 H        -4.110686         1.122799         0.080947
 H        -2.579693         2.190566         0.335488
 H        -2.734748         0.989282        -1.113421
 H        -1.758183        -2.158784         1.394837
 H        -3.384843        -2.724689         1.962269
 H        -2.976159        -2.666300        -1.193037
