19
Iteration:  1501
 C         1.678014         0.749789        -0.224818
 C         0.325840         0.255147         0.158631
 C        -0.855661         0.005981         0.080771
 C        -2.241315        -0.200031         0.303106
 C        -3.189973         0.944092        -0.047828
 O        -2.850117        -1.420810        -0.275935
 C        -2.488465        -2.489826         0.647451
 C        -3.308529        -3.807183         0.212210
 O        -3.614741        -4.833661         0.829090
 H         1.415700         1.144399        -1.218769
 H         2.005546         1.481976         0.500412
 H         2.348174        -0.158566        -0.280548
 H        -2.441437        -0.252511         1.384435
 H        -4.135617         0.474555        -0.289342
 H        -3.328474         1.609676         0.870998
 H        -2.824839         1.742145        -0.727240
 H        -1.424269        -2.800419         0.483100
 H        -2.731204        -2.198988         1.712967
 H        -3.353712        -3.705907        -0.917009
