19
Iteration:  4674charge 0 multiplicity 1
 C         1.794604        -0.541512         0.271210
 C         0.327650        -0.491471         0.561565
 C        -0.859423        -0.228621         0.825961
 C        -2.360365        -0.205419         1.110247
 C        -3.060057         1.234763         0.951668
 O        -3.162362        -1.074041         0.291729
 C        -2.510976        -2.406997         0.229724
 C        -3.316348        -3.034250        -1.004470
 O        -3.430715        -4.199168        -1.324404
 H         2.367981        -0.843781         1.216728
 H         1.955026        -1.302096        -0.611781
 H         2.224355         0.474693        -0.056994
 H        -2.334057        -0.571977         2.222479
 H        -2.780419         2.033929         1.640155
 H        -2.809751         1.798241        -0.040867
 H        -4.178409         1.114841         0.997268
 H        -1.456152        -2.465019         0.063739
 H        -2.824625        -2.834222         1.267966
 H        -3.732940        -2.161406        -1.651422
