19
Iteration:  2076
 C         0.960509        -1.153229        -0.539517
 C        -0.167939        -0.550483        -0.013412
 C        -1.296016        -0.137481         0.240341
 C        -2.602507         0.139507         0.616668
 C        -3.117104         1.264626        -0.230772
 O        -3.517438        -1.008328         0.537211
 C        -3.267416        -2.376731         1.022630
 C        -2.244533        -3.050806         0.000381
 O        -1.503399        -3.996048         0.094780
 H         1.153623        -0.910198        -1.574208
 H         1.956205        -0.893213        -0.045240
 H         0.911805        -2.296987        -0.431968
 H        -2.673523         0.468436         1.684366
 H        -4.076759         1.577456         0.294936
 H        -2.270770         2.083002        -0.245717
 H        -3.324876         0.992414        -1.277310
 H        -2.931160        -2.415992         2.118747
 H        -4.269427        -2.926381         0.943608
 H        -2.146618        -2.425569        -0.803964
