19
Iteration:  4628charge 0 multiplicity 1
 C         1.479467        -0.721072         0.080344
 C         0.224757        -0.280333         0.646150
 C        -0.938057        -0.101119         1.016577
 C        -2.412923        -0.191388         1.269298
 C        -2.933039         1.118514         0.868253
 O        -2.950044        -1.093159         0.234233
 C        -2.543404        -2.412703         0.175017
 C        -3.060619        -2.994662        -1.114927
 O        -3.469918        -4.149686        -1.167052
 H         1.748972        -1.832012         0.199237
 H         1.548977        -0.322356        -0.943291
 H         2.221215        -0.132030         0.712327
 H        -2.675703        -0.565932         2.341672
 H        -2.576634         2.047961         1.451590
 H        -2.463819         1.290028        -0.109030
 H        -4.073424         1.057556         0.728834
 H        -1.445358        -2.381555         0.237492
 H        -2.934347        -3.231144         0.844206
 H        -3.296625        -2.250605        -1.938921
