19
Iteration:  2873
 C         1.254838        -0.892595        -0.694758
 C        -0.074810        -0.434400        -0.172978
 C        -1.169138        -0.081517         0.292285
 C        -2.566068         0.068804         0.878613
 C        -3.203470         1.432641         0.434622
 O        -3.301257        -1.009960         0.426172
 C        -2.897578        -2.295825         0.816719
 C        -2.541327        -3.237146        -0.306205
 O        -2.239316        -4.382331         0.044106
 H         1.766515        -0.067738        -1.193755
 H         1.924033        -1.368516         0.035837
 H         0.965707        -1.673651        -1.513387
 H        -2.420768         0.100647         1.984130
 H        -4.120654         1.731142         0.946930
 H        -2.419589         2.150381         0.475536
 H        -3.467482         1.322187        -0.627901
 H        -1.950658        -2.215043         1.387749
 H        -3.677229        -2.831821         1.318005
 H        -2.425706        -2.796203        -1.393971
