19
Iteration:  2640
 C         1.415296        -0.342746        -0.521272
 C         0.006299        -0.418590        -0.259681
 C        -1.086761        -0.041869         0.245838
 C        -2.398710         0.142209         0.769997
 C        -3.212982         1.050526        -0.132715
 O        -3.275331        -1.026150         0.815019
 C        -2.619576        -2.317893         1.038893
 C        -2.534210        -3.384662        -0.131854
 O        -2.992577        -4.520034        -0.144210
 H         1.844524         0.065508        -1.489189
 H         1.764706         0.392217         0.222425
 H         1.915164        -1.319270        -0.378302
 H        -2.329861         0.593773         1.780373
 H        -4.270397         0.807221        -0.026028
 H        -3.114999         2.104415         0.050024
 H        -2.963903         0.927281        -1.219462
 H        -1.447754        -2.264513         1.180821
 H        -2.967802        -2.882509         1.926328
 H        -1.848843        -3.143420        -0.961872
