19
Iteration:  3564charge 0 multiplicity 1
 C         1.007324        -0.939082        -0.714310
 C        -0.106171        -0.559757         0.159481
 C        -1.092097        -0.193565         0.790760
 C        -2.494578         0.019711         1.011575
 C        -3.008873         1.522226         0.695050
 O        -3.350462        -0.919133         0.198294
 C        -3.056901        -2.262551         0.506192
 C        -2.189418        -3.147554        -0.449452
 O        -2.381092        -4.361308        -0.357579
 H         1.310213        -1.959136        -0.639726
 H         0.850628        -0.627244        -1.720583
 H         1.945849        -0.511064        -0.268275
 H        -2.705848        -0.194810         2.088026
 H        -2.202293         2.218348         0.890031
 H        -3.384761         1.515934        -0.322573
 H        -3.838221         1.735228         1.380714
 H        -2.511683        -2.354932         1.511130
 H        -3.990603        -2.905434         0.707607
 H        -1.328155        -2.904621        -1.162837
