19
Iteration:  3001charge 0 multiplicity 1
 C         1.078274        -0.958455        -0.887341
 C        -0.063157        -0.526939         0.011485
 C        -1.162187        -0.276489         0.396215
 C        -2.613981        -0.044862         0.843809
 C        -2.892443         1.430130         0.494080
 O        -3.519628        -0.977239         0.346986
 C        -3.265048        -2.313151         0.740438
 C        -2.404156        -3.091325        -0.226387
 O        -1.870476        -4.150122         0.027349
 H         0.902196        -2.054275        -0.989321
 H         0.947127        -0.388604        -1.790965
 H         1.994370        -0.770200        -0.363638
 H        -2.595925        -0.195450         1.940612
 H        -3.536855         1.859513         1.299809
 H        -1.935792         1.987407         0.559868
 H        -3.340045         1.516523        -0.527197
 H        -2.720492        -2.385076         1.701716
 H        -4.290321        -2.811099         0.903337
 H        -2.147330        -2.548655        -1.269700
