19
Iteration:  3094charge 0 multiplicity 1
 C         1.173734        -0.989431        -0.793951
 C        -0.039730        -0.500207        -0.187705
 C        -1.161584        -0.629485         0.320064
 C        -2.492014        -0.154437         0.864383
 C        -2.879027         1.309732         0.456027
 O        -3.618402        -0.936579         0.560270
 C        -3.478428        -2.293267         0.742392
 C        -2.439209        -2.928620        -0.243314
 O        -1.713438        -3.867159        -0.002550
 H         1.998090        -0.821503        -0.142178
 H         0.941354        -2.064666        -1.082302
 H         1.263976        -0.498056        -1.779616
 H        -2.421030         0.010713         1.948154
 H        -3.944609         1.268826         0.250018
 H        -2.756160         2.000211         1.346652
 H        -2.339424         1.648822        -0.392754
 H        -3.275263        -2.546531         1.809450
 H        -4.405469        -2.692543         0.321087
 H        -2.786126        -2.410648        -1.170083
