19
Iteration:  3503charge 0 multiplicity 1
 C         1.286985        -0.878889        -0.629016
 C         0.045382        -0.503702         0.042192
 C        -1.037460        -0.155835         0.515647
 C        -2.442785         0.000765         0.947519
 C        -3.002894         1.379308         0.540611
 O        -3.476751        -0.994675         0.489133
 C        -3.334682        -2.396465         0.717258
 C        -2.472072        -3.088249        -0.370508
 O        -2.207539        -4.271443        -0.474986
 H         0.990235        -1.271804        -1.666610
 H         2.090661        -0.038468        -0.645344
 H         1.755243        -1.567697         0.076832
 H        -2.480658        -0.211970         2.033147
 H        -2.448703         2.155831         1.134499
 H        -2.889056         1.813185        -0.516499
 H        -4.053785         1.399953         0.803512
 H        -2.867464        -2.475341         1.722107
 H        -4.323163        -2.826361         0.725049
 H        -2.178065        -2.209399        -1.148763
