19
Iteration:   485
 C         1.535402         0.415023         0.012210
 C         0.100435         0.332992         0.125435
 C        -1.089178         0.149809         0.158984
 C        -2.455928        -0.104737         0.145778
 C        -3.184315         0.970136        -0.765348
 O        -2.844599        -1.463210        -0.159536
 C        -2.232219        -2.659490         0.464978
 C        -3.188296        -3.838406         0.323501
 O        -3.297853        -4.537586         1.359051
 H         1.814037        -0.534324        -0.459644
 H         1.859604         1.234938        -0.639506
 H         1.997491         0.603739         0.928852
 H        -2.877588         0.043671         1.189917
 H        -3.997183         1.379138        -0.237527
 H        -2.469886         1.709121        -1.154379
 H        -3.580609         0.456418        -1.684213
 H        -1.165246        -2.973068         0.321730
 H        -2.206794        -2.462853         1.505090
 H        -3.789939        -3.851538        -0.599148
