19
Iteration:  2579charge 0 multiplicity 1
 C         1.354550        -0.536233        -0.668692
 C         0.188687        -0.048739         0.083016
 C        -1.081452        -0.068979         0.279255
 C        -2.501537         0.009364         0.737968
 C        -3.343579         1.073002        -0.050694
 O        -3.169519        -1.195166         0.348156
 C        -2.535457        -2.261844         1.139065
 C        -2.560935        -3.322683         0.027101
 O        -2.975665        -4.430073        -0.075469
 H         2.080744         0.226739        -0.960695
 H         1.754264        -1.406617        -0.098846
 H         0.883249        -1.053965        -1.558918
 H        -2.467582         0.117336         1.867638
 H        -4.345630         1.213872         0.341388
 H        -2.759691         2.072191        -0.120596
 H        -3.364327         0.603287        -0.992282
 H        -1.570316        -1.864950         1.246870
 H        -3.022937        -2.438003         2.098880
 H        -1.970152        -2.804115        -0.827413
