19
Iteration:  3011charge 0 multiplicity 1
 C         1.016713        -0.879612        -0.844355
 C        -0.039816        -0.596785         0.022778
 C        -1.190544        -0.357547         0.384405
 C        -2.504083        -0.004614         0.944920
 C        -2.879067         1.412447         0.523487
 O        -3.598047        -0.954585         0.253960
 C        -3.289069        -2.269184         0.768888
 C        -2.427618        -3.132813        -0.266980
 O        -1.811276        -4.139213         0.027968
 H         1.029328        -2.045473        -0.968868
 H         0.887582        -0.636658        -1.907033
 H         2.035073        -0.651993        -0.644579
 H        -2.623548        -0.141620         2.044066
 H        -3.656634         2.012605         1.047411
 H        -1.919078         1.991130         0.420390
 H        -3.218224         1.328536        -0.526160
 H        -2.666035        -2.143349         1.679963
 H        -4.190311        -2.910353         1.113278
 H        -2.205936        -2.565248        -1.243775
