19
Iteration:  2895charge 0 multiplicity 1
 C         1.102311        -0.923732        -0.673989
 C        -0.112608        -0.449259        -0.129769
 C        -1.178529        -0.094599         0.172869
 C        -2.457361         0.058848         0.741421
 C        -3.078338         1.405837         0.564236
 O        -3.496482        -0.972869         0.296862
 C        -2.921739        -2.205895         0.915925
 C        -2.377326        -3.217970        -0.103304
 O        -2.176157        -4.442552        -0.095444
 H         1.530284        -0.286494        -1.441131
 H         1.820267        -0.920075         0.180518
 H         1.010804        -2.092200        -0.972103
 H        -2.243745        -0.065905         1.836325
 H        -4.063457         1.304254         1.050024
 H        -2.489052         2.202482         0.873968
 H        -3.356851         1.533731        -0.514304
 H        -1.990313        -1.915299         1.445757
 H        -3.714642        -2.624817         1.478210
 H        -2.305793        -2.575236        -1.099382
