19
Iteration:   395charge 0 multiplicity 1
 C         1.543844         0.185800         0.122787
 C         0.108129        -0.044878         0.188514
 C        -1.098590         0.136877         0.072966
 C        -2.542523        -0.106752         0.123777
 C        -3.474117         0.768050        -0.658294
 O        -2.842247        -1.409578        -0.360743
 C        -2.035551        -2.419805         0.233305
 C        -3.024371        -3.618098         0.484499
 O        -3.281219        -4.290892         1.489522
 H         1.690409         1.113485        -0.520670
 H         2.023219         0.329967         1.119037
 H         2.090734        -0.601022        -0.329663
 H        -2.674182        -0.001076         1.265137
 H        -3.809500         0.097289        -1.526086
 H        -4.380400         1.123458        -0.109590
 H        -3.080466         1.678919        -1.120953
 H        -1.209832        -2.812030        -0.419187
 H        -1.491907        -2.035966         1.087538
 H        -3.767356        -3.715915        -0.367196
