19
Iteration:   398charge 0 multiplicity 1
 C         1.542031         0.189814         0.106219
 C         0.102420        -0.066483         0.213397
 C        -1.089494         0.125328         0.067917
 C        -2.551883        -0.078096         0.143088
 C        -3.484004         0.783334        -0.674278
 O        -2.826479        -1.420519        -0.363827
 C        -2.025392        -2.435344         0.268006
 C        -3.048435        -3.633655         0.468397
 O        -3.268679        -4.275180         1.478835
 H         1.698261         1.092122        -0.542630
 H         1.960698         0.470207         1.105539
 H         2.167701        -0.609108        -0.351062
 H        -2.803848        -0.014736         1.214616
 H        -3.885694         0.162305        -1.440627
 H        -4.319101         1.149329        -0.047431
 H        -3.029112         1.647116        -1.192458
 H        -1.290261        -2.802207        -0.457354
 H        -1.451196        -1.997770         1.069561
 H        -3.729791        -3.801720        -0.361398
