19
Iteration:   787charge 0 multiplicity 1
 C         1.471230        -0.078795         0.057748
 C         0.028182        -0.370363        -0.136399
 C        -1.103809         0.012328         0.007649
 C        -2.554511         0.140618         0.152336
 C        -3.593084         0.995100        -0.593374
 O        -2.970479        -1.276572         0.231755
 C        -2.284421        -2.255339         0.927221
 C        -2.548505        -3.529685         0.179533
 O        -3.082372        -4.495963         0.755456
 H         2.148490        -0.902407         0.369629
 H         1.898365         0.209814        -0.930705
 H         1.474385         0.733417         0.767251
 H        -2.770258         0.354487         1.220939
 H        -4.575364         0.514173        -0.560968
 H        -3.607243         2.039490        -0.285430
 H        -3.298769         1.244157        -1.729870
 H        -1.146132        -1.915677         1.128335
 H        -2.751431        -2.430630         1.952582
 H        -2.366534        -3.676809        -0.929871
