19
Iteration:  1569
 C         1.627538         0.711557        -0.138958
 C         0.205685         0.346762        -0.094554
 C        -0.901764        -0.146274         0.233245
 C        -2.344310        -0.296179         0.544428
 C        -3.077080         0.863550        -0.106163
 O        -2.973349        -1.399393        -0.138415
 C        -2.207225        -2.568518         0.225482
 C        -3.281493        -3.712075         0.171835
 O        -3.632254        -4.574226         0.990265
 H         2.164382        -0.075266        -0.807111
 H         1.846081         1.686321        -0.602369
 H         2.080976         0.743193         0.898295
 H        -2.465932        -0.428683         1.646139
 H        -2.925525         0.739077        -1.180928
 H        -4.160445         0.552076         0.117996
 H        -3.041641         1.750393         0.391620
 H        -1.490375        -2.790617        -0.621905
 H        -1.679451        -2.478119         1.237261
 H        -3.772902        -3.732055        -0.795488
