19
Iteration:   504
 C         1.705569         0.526559        -0.010894
 C         0.219268         0.192452         0.190007
 C        -1.008904         0.201247         0.066273
 C        -2.506111        -0.082346         0.215029
 C        -3.289783         0.826413        -0.794922
 O        -2.926191        -1.468370        -0.157010
 C        -2.318031        -2.542553         0.585828
 C        -3.233176        -3.710440         0.429328
 O        -3.322380        -4.683003         1.209506
 H         2.388275        -0.355147        -0.112135
 H         1.827560         1.137043        -0.923039
 H         2.060526         1.213395         0.771660
 H        -2.865074         0.150266         1.232499
 H        -4.100565         1.343925        -0.253615
 H        -2.449182         1.428650        -1.195758
 H        -3.615727         0.275830        -1.699992
 H        -1.293318        -2.871141         0.120842
 H        -2.051322        -2.266333         1.635149
 H        -3.621017        -3.800922        -0.634018
