19
Iteration:  4682
 C         1.772363        -0.480519         0.302407
 C         0.358313        -0.495914         0.603333
 C        -0.837018        -0.246333         0.700269
 C        -2.352348        -0.175602         1.116657
 C        -3.011689         1.179556         0.952082
 O        -3.132719        -1.076556         0.291367
 C        -2.627408        -2.360405         0.225096
 C        -3.317758        -3.031892        -1.003600
 O        -3.416370        -4.206805        -1.320280
 H         2.168856        -0.668355         1.301006
 H         1.822984        -1.339977        -0.296418
 H         2.268899         0.331637        -0.209099
 H        -2.422380        -0.436547         2.147244
 H        -2.587150         1.750858         1.812909
 H        -2.825361         1.589219        -0.003067
 H        -4.104624         1.063092         1.162652
 H        -1.499525        -2.314424         0.101854
 H        -2.730073        -3.049176         1.056247
 H        -3.993849        -2.265503        -1.493990
