19
Iteration:  4517
 C         1.713940        -0.651305         0.135735
 C         0.269878        -0.293813         0.450373
 C        -0.929459        -0.308156         0.702649
 C        -2.366131        -0.136097         1.120328
 C        -2.974666         1.274321         1.005510
 O        -3.091635        -0.968978         0.190456
 C        -3.007787        -2.402384         0.365839
 C        -3.026543        -3.106370        -0.931134
 O        -3.217442        -4.276995        -1.172892
 H         2.103840         0.166090        -0.557214
 H         2.391039        -0.816454         0.943516
 H         1.821550        -1.490703        -0.576095
 H        -2.608966        -0.443289         2.190527
 H        -2.723190         1.656632         2.062257
 H        -2.640673         1.831784         0.112855
 H        -4.076360         1.333788         1.089485
 H        -2.044189        -2.666880         0.824437
 H        -3.740283        -2.911268         1.052937
 H        -2.557721        -2.441100        -1.741744
