19
Iteration:  4973
 C         1.791520        -0.130822         0.619963
 C         0.356659        -0.099836         0.628854
 C        -0.797511        -0.368904         0.755097
 C        -2.224155        -0.533926         0.969076
 C        -2.796287         0.857819         1.395745
 O        -3.013393        -1.007349        -0.132554
 C        -2.513401        -2.461170        -0.218655
 C        -3.374148        -3.093326        -1.231922
 O        -4.010974        -4.080482        -0.942077
 H         2.300310         0.625996         1.281493
 H         2.198074        -1.136550         0.806453
 H         2.166441         0.203367        -0.382818
 H        -2.216375        -1.177320         1.875500
 H        -2.568729         1.020051         2.502020
 H        -2.498383         1.726277         0.777326
 H        -3.941469         0.993374         1.267772
 H        -1.469892        -2.470858        -0.618650
 H        -2.726654        -2.885668         0.742831
 H        -3.061484        -2.731286        -2.208049
