19
Iteration:  3597charge 0 multiplicity 1
 C         1.022984        -0.965748        -0.677810
 C        -0.029226        -0.565014         0.268264
 C        -1.121018        -0.141081         0.574250
 C        -2.428259         0.014520         0.998634
 C        -3.034522         1.481116         0.786859
 O        -3.276948        -0.893382         0.194005
 C        -3.176558        -2.233433         0.586594
 C        -2.288677        -3.187637        -0.489711
 O        -2.309391        -4.398862        -0.377203
 H         1.729894        -1.572989        -0.193673
 H         0.680528        -1.462954        -1.571771
 H         1.445745         0.048844        -0.905418
 H        -2.534289        -0.163295         2.060013
 H        -2.471673         2.279971         1.277634
 H        -2.950551         1.779165        -0.270887
 H        -4.074436         1.507144         1.046482
 H        -2.696939        -2.467869         1.585237
 H        -4.182266        -2.762081         0.507181
 H        -1.740793        -2.548927        -1.261107
