19
Iteration:   355
 C         1.553761         0.073491         0.217795
 C         0.118254         0.418575        -0.044413
 C        -1.056897         0.123970        -0.051875
 C        -2.492495        -0.143705         0.103904
 C        -3.473388         0.870223        -0.672062
 O        -2.751761        -1.465421        -0.335301
 C        -2.218067        -2.616101         0.309501
 C        -3.237371        -3.602961         0.524546
 O        -3.115243        -4.316710         1.522411
 H         2.207183         0.892778         0.565278
 H         1.588001        -0.702654         0.999037
 H         1.969454        -0.285553        -0.755219
 H        -2.781506        -0.152691         1.121947
 H        -2.908661         1.353187        -1.404079
 H        -4.319694         0.324449        -1.079377
 H        -3.732832         1.642576         0.057738
 H        -1.382588        -2.976802        -0.311721
 H        -1.899639        -2.454665         1.359954
 H        -4.047375        -3.816232        -0.254320
