19
Iteration:  3612
 C         1.133128        -0.951862        -0.622802
 C        -0.015427        -0.479987         0.108955
 C        -1.116537        -0.262245         0.561281
 C        -2.486259         0.045637         1.006400
 C        -3.028262         1.417009         0.778917
 O        -3.225922        -0.914495         0.206797
 C        -3.184773        -2.310568         0.558700
 C        -2.423185        -3.100344        -0.376385
 O        -2.282025        -4.291106        -0.396778
 H         1.971233        -1.259729         0.042943
 H         0.690412        -1.828175        -1.218320
 H         1.631007        -0.259648        -1.278560
 H        -2.600919        -0.263295         2.098927
 H        -2.698007         2.042822         1.639574
 H        -2.833635         1.800104        -0.261485
 H        -4.117028         1.231597         0.856341
 H        -2.944965        -2.457394         1.633484
 H        -4.233746        -2.636812         0.548478
 H        -2.116546        -2.570601        -1.298540
