19
Iteration:  2135charge 0 multiplicity 1
 C         1.047895        -1.371161        -0.593387
 C        -0.273789        -0.882387        -0.276251
 C        -1.360245        -0.439496         0.196774
 C        -2.653639         0.017308         0.707054
 C        -3.293171         1.365998         0.238141
 O        -3.594148        -0.932923         0.219367
 C        -3.139267        -2.173424         0.735302
 C        -2.080240        -2.872781        -0.098850
 O        -1.389092        -3.641631         0.496061
 H         0.894615        -2.269760        -1.277082
 H         1.699475        -0.638582        -1.028033
 H         1.501668        -1.797711         0.300197
 H        -2.719885        -0.053382         1.825750
 H        -4.369755         1.170170         0.073260
 H        -3.248120         2.131868         0.952255
 H        -2.766415         1.675530        -0.730351
 H        -2.658155        -2.202480         1.761426
 H        -4.094203        -2.841405         0.824906
 H        -2.299564        -2.889090        -1.128805
