19
Iteration:  2667charge 0 multiplicity 1
 C         1.521199        -0.313938        -0.547874
 C         0.087574        -0.179847        -0.187159
 C        -1.114386        -0.326565         0.226075
 C        -2.452713         0.038540         0.701570
 C        -3.239211         1.059524        -0.167239
 O        -3.220349        -1.133218         0.791765
 C        -2.628404        -2.393645         1.137813
 C        -2.656165        -3.219358        -0.125443
 O        -2.933777        -4.416574        -0.131378
 H         1.864091        -0.509179        -1.537921
 H         2.031671         0.666181        -0.437956
 H         2.052712        -1.048035         0.060614
 H        -2.435516         0.549318         1.675926
 H        -4.259936         1.224160         0.236696
 H        -2.749229         2.053345        -0.150116
 H        -3.427659         0.781467        -1.203198
 H        -1.689760        -2.460032         1.601505
 H        -3.377432        -2.934570         1.733091
 H        -2.620982        -2.719393        -1.068138
