19
Iteration:  2363charge 0 multiplicity 1
 C         1.354745        -0.338752        -0.813748
 C         0.140549        -0.541926        -0.094902
 C        -1.076969        -0.426157         0.202411
 C        -2.443105        -0.193730         0.598358
 C        -2.953972         1.245672         0.266686
 O        -3.506486        -1.049358         0.171009
 C        -3.554623        -2.346646         0.677282
 C        -2.514886        -3.186789         0.042337
 O        -2.105636        -4.167779         0.627511
 H         1.023409         0.094208        -1.823088
 H         2.067041         0.376480        -0.307566
 H         1.876749        -1.331503        -0.869423
 H        -2.466257        -0.129711         1.730283
 H        -3.833110         1.415344         0.901950
 H        -2.075918         1.963173         0.468813
 H        -3.245584         1.419200        -0.783767
 H        -3.301699        -2.269631         1.744931
 H        -4.439012        -2.982465         0.505460
 H        -2.074708        -2.833717        -0.951254
