19
Iteration:  4479
 C         1.748094        -0.578547         0.209471
 C         0.315402        -0.381844         0.443176
 C        -0.891256        -0.120476         0.531391
 C        -2.351620        -0.194217         1.012722
 C        -2.826622         1.174965         1.076378
 O        -3.212536        -0.989957         0.255894
 C        -3.199949        -2.422410         0.372084
 C        -3.115562        -3.092727        -0.973313
 O        -3.083049        -4.289337        -1.106108
 H         2.236717         0.327586         0.603227
 H         2.348004        -1.417071         0.705849
 H         1.888779        -0.601461        -0.892421
 H        -2.262610        -0.622896         2.110089
 H        -2.216038         1.906533         1.631385
 H        -2.894820         1.588249        -0.026530
 H        -3.934359         1.263801         1.383931
 H        -2.332622        -2.871054         0.923752
 H        -4.198907        -2.516029         0.741064
 H        -2.914405        -2.411981        -1.764385
