19
Iteration:  2843
 C         1.225390        -0.747404        -0.697736
 C        -0.032706        -0.393671        -0.158265
 C        -1.027456        -0.040012         0.452638
 C        -2.383098         0.161402         0.835580
 C        -3.212531         1.278888         0.246417
 O        -3.304440        -0.950239         0.561935
 C        -2.947110        -2.287849         0.864889
 C        -2.661578        -3.348395        -0.273589
 O        -2.295882        -4.487013        -0.084086
 H         1.928958         0.030908        -0.501009
 H         1.745400        -1.707096        -0.486450
 H         1.116579        -0.860205        -1.749318
 H        -2.286456         0.337591         1.918874
 H        -4.089860         1.323094         0.894476
 H        -2.791170         2.228547         0.152450
 H        -3.504812         1.002617        -0.804515
 H        -2.079329        -2.304625         1.583053
 H        -3.898412        -2.714852         1.309630
 H        -2.906598        -3.021573        -1.276007
