19
Iteration:    91
 C         1.738248         0.252987        -0.150385
 C         0.262010         0.509187        -0.198131
 C        -0.902532         0.141075        -0.084118
 C        -2.337252        -0.177396         0.051156
 C        -3.112385         0.512913        -1.050160
 O        -2.870310        -1.494841        -0.081855
 C        -2.777959        -2.137342         1.140276
 C        -3.587766        -3.582016         1.043113
 O        -3.032720        -4.673883         0.951733
 H         2.351071         1.144335        -0.461145
 H         2.005761        -0.037268         0.845935
 H         1.886753        -0.545203        -0.805187
 H        -2.604105         0.142322         1.027221
 H        -4.077761         0.867227        -0.602475
 H        -2.571310         1.370883        -1.441684
 H        -3.334072        -0.196629        -1.815216
 H        -1.788499        -2.567415         1.274084
 H        -2.988728        -1.441117         1.926471
 H        -4.670282        -3.493968         1.045078
