19
Iteration:  2518
 C         1.329055        -0.480102        -0.570770
 C        -0.046405        -0.186105        -0.338804
 C        -1.128218         0.086408         0.249163
 C        -2.432947         0.165423         0.817409
 C        -3.187627         1.276755         0.094987
 O        -3.054767        -1.087609         0.275203
 C        -2.873771        -2.336163         1.005856
 C        -2.480605        -3.552632         0.031562
 O        -2.856698        -4.675965         0.103766
 H         2.009817        -0.374263         0.369366
 H         1.573675        -1.413361        -1.134541
 H         1.756663         0.354943        -1.095998
 H        -2.474858         0.198781         1.906293
 H        -4.230481         1.527327         0.439726
 H        -2.694992         2.256451         0.169491
 H        -3.097341         1.091485        -1.007795
 H        -1.968419        -2.390894         1.745334
 H        -3.679461        -2.650017         1.731130
 H        -1.625923        -3.284279        -0.744256
