19
Iteration:  4404
 C         1.652311        -0.372478         0.188880
 C         0.226567        -0.596407         0.482045
 C        -0.974444        -0.452763         0.517686
 C        -2.303686        -0.220973         0.999603
 C        -2.590827         1.328603         1.044581
 O        -3.321231        -0.952044         0.273286
 C        -3.329369        -2.379574         0.381614
 C        -3.097657        -3.092542        -1.032543
 O        -2.874882        -4.276431        -1.020614
 H         2.358472        -0.966529         0.758973
 H         1.843904        -0.676522        -0.869445
 H         1.903687         0.676087         0.230009
 H        -2.446257        -0.546361         2.007978
 H        -1.843889         1.829765         1.661711
 H        -2.726281         1.749832         0.005758
 H        -3.603362         1.606730         1.447779
 H        -2.555199        -2.778242         0.972379
 H        -4.404098        -2.523864         0.653187
 H        -3.247081        -2.495696        -2.012553
