19
Iteration:  1202
 C         1.363116        -0.161290         0.143903
 C         0.020795         0.174314        -0.056423
 C        -1.175053         0.234791         0.155000
 C        -2.476200         0.054004         0.450263
 C        -3.277603         0.940823        -0.555666
 O        -3.023917        -1.230337         0.212727
 C        -2.205961        -2.412451         0.304193
 C        -3.101813        -3.580699         0.350956
 O        -2.836647        -4.711154         0.663980
 H         2.150639         0.480009        -0.361235
 H         1.489634        -0.027745         1.324235
 H         1.500582        -1.249575        -0.034797
 H        -2.620735         0.364881         1.511446
 H        -4.313761         0.555495        -0.830154
 H        -3.340224         2.025047        -0.258422
 H        -2.678016         1.028966        -1.424250
 H        -1.608863        -2.775802        -0.611002
 H        -1.353043        -2.353098         1.028104
 H        -4.081808        -3.195622         0.058471
