19
Iteration:  4649charge 0 multiplicity 1
 C         1.582483        -0.587069         0.200315
 C         0.212385        -0.416618         0.543418
 C        -0.890978        -0.205386         0.968931
 C        -2.338889        -0.133599         1.198511
 C        -3.012826         1.166341         0.844775
 O        -2.966462        -1.101612         0.299321
 C        -2.554326        -2.437301         0.201000
 C        -3.180064        -2.994124        -1.079902
 O        -3.453523        -4.164524        -1.234422
 H         1.901571        -1.547371         0.727317
 H         1.647669        -0.923473        -0.812084
 H         2.323300         0.201625         0.436393
 H        -2.513416        -0.369990         2.266448
 H        -2.782171         1.946169         1.651041
 H        -2.754262         1.783638         0.033333
 H        -4.132081         1.041433         0.858164
 H        -1.469873        -2.574700        -0.105283
 H        -2.798550        -3.053221         1.138053
 H        -3.387679        -2.156682        -1.874399
