19
Iteration:   758charge 0 multiplicity 1
 C         1.478273         0.021425        -0.066516
 C         0.053573        -0.159210         0.114645
 C        -1.109222         0.047003        -0.101816
 C        -2.543553         0.080367         0.283836
 C        -3.316238         0.905069        -0.647657
 O        -3.148673        -1.251599         0.221968
 C        -2.346457        -2.270913         0.875319
 C        -2.712266        -3.578972         0.249562
 O        -3.056311        -4.603794         0.757976
 H         1.939030        -0.876641        -0.599707
 H         1.573741         0.957714        -0.741160
 H         2.089594         0.297837         0.789461
 H        -2.612744         0.303116         1.368931
 H        -4.253278         0.324877        -0.840483
 H        -3.370464         1.968204        -0.399078
 H        -2.721755         0.885965        -1.535083
 H        -1.353217        -2.074419         0.592098
 H        -2.509301        -2.306403         1.975132
 H        -2.422106        -3.554861        -0.835310
