19
Iteration:  4374charge 0 multiplicity 1
 C         1.692596        -0.434717         0.051134
 C         0.236936        -0.490549         0.446622
 C        -0.947365        -0.575285         0.710302
 C        -2.351393        -0.275737         1.043405
 C        -2.643825         1.251748         0.940548
 O        -3.422600        -0.891689         0.267462
 C        -3.362169        -2.325054         0.385239
 C        -3.032592        -3.046100        -0.901672
 O        -2.815935        -4.242508        -1.083099
 H         2.312073        -1.353420         0.055556
 H         1.849499         0.026822        -0.909568
 H         2.260965         0.135970         0.825018
 H        -2.553586        -0.629539         2.110368
 H        -2.403460         1.955434         1.724887
 H        -2.133318         1.615768         0.036948
 H        -3.650943         1.514899         0.799938
 H        -2.548195        -2.824168         1.120952
 H        -4.405856        -2.389277         0.811623
 H        -2.884667        -2.368272        -1.752332
