19
Iteration:  3330charge 0 multiplicity 1
 C         1.232521        -0.972919        -0.555014
 C        -0.102028        -0.621554         0.043066
 C        -1.179214        -0.243925         0.442753
 C        -2.524265        -0.029488         0.897232
 C        -2.968414         1.348253         0.352973
 O        -3.484316        -0.956036         0.570904
 C        -3.235289        -2.394460         0.872502
 C        -2.527164        -3.009529        -0.362300
 O        -1.904801        -4.046478        -0.434973
 H         1.648028        -1.885808        -0.024730
 H         0.950312        -1.403595        -1.492861
 H         1.905410        -0.092583        -0.686435
 H        -2.412897         0.108806         1.998383
 H        -2.236489         1.790111        -0.348362
 H        -3.849913         1.151108        -0.333315
 H        -3.299974         2.133336         0.976378
 H        -2.818956        -2.658400         1.904978
 H        -4.268806        -2.739203         0.794211
 H        -2.580008        -2.477007        -1.339644
