19
Iteration:  1451
 C         1.634526         0.596287        -0.230066
 C         0.249505         0.383889        -0.174677
 C        -0.890738         0.183024         0.234274
 C        -2.243996        -0.158943         0.574182
 C        -3.143940         0.850643        -0.252593
 O        -2.638297        -1.390055        -0.034743
 C        -2.771274        -2.549207         0.829102
 C        -3.296571        -3.781883         0.085124
 O        -3.489997        -4.838965         0.640222
 H         1.851145         1.685252        -0.346740
 H         1.966301         0.246440         0.748587
 H         2.105406         0.004250        -1.010133
 H        -2.486479        -0.122016         1.658727
 H        -4.070590         1.019050         0.368230
 H        -2.645573         1.758301        -0.659187
 H        -3.507032         0.329617        -1.176724
 H        -1.745278        -2.945717         1.038201
 H        -3.264124        -2.312271         1.774410
 H        -3.459622        -3.515112        -0.942197
