19
Iteration:  3914charge 0 multiplicity 1
 C         0.963334        -1.493594        -0.497246
 C        -0.167308        -0.696523         0.087984
 C        -1.099801        -0.055980         0.577691
 C        -2.469491         0.004364         1.075058
 C        -3.159838         1.390302         1.028563
 O        -3.316595        -0.893133         0.387261
 C        -3.097297        -2.222547         0.412073
 C        -2.340757        -2.845869        -0.702802
 O        -1.977366        -3.996350        -0.567153
 H         1.961801        -1.330992        -0.022029
 H         0.723734        -2.552484        -0.365174
 H         1.053166        -1.137364        -1.613337
 H        -2.484142        -0.505143         2.105369
 H        -2.400049         2.124416         1.387762
 H        -3.251690         1.516624        -0.064090
 H        -4.220842         1.496225         1.362397
 H        -2.863072        -2.634926         1.485160
 H        -4.193256        -2.639078         0.309022
 H        -1.997379        -2.249707        -1.580266
