19
Iteration:  4073charge 0 multiplicity 1
 C         1.195690        -1.195978        -0.395847
 C         0.029079        -0.780833         0.343133
 C        -1.167518        -0.556087         0.562307
 C        -2.433961        -0.122033         1.173892
 C        -2.756082         1.148242         0.614350
 O        -3.597602        -0.926822         0.637122
 C        -3.426277        -2.279904         0.499033
 C        -2.627844        -2.664117        -0.776226
 O        -1.874055        -3.601583        -0.805003
 H         0.926473        -2.231924        -0.734311
 H         1.575590        -0.508649        -1.218913
 H         2.055588        -1.404584         0.321631
 H        -2.499730        -0.306402         2.253478
 H        -2.160667         2.005779         1.041888
 H        -2.687279         1.141032        -0.491128
 H        -3.736863         1.475467         0.925457
 H        -3.046837        -2.754011         1.398049
 H        -4.417867        -2.734207         0.466157
 H        -3.054982        -2.000637        -1.616689
