19
Iteration:  3725
 C         1.372573        -0.650992        -0.305540
 C        -0.037982        -0.712300        -0.166768
 C        -1.193672        -0.708988         0.282606
 C        -2.433336        -0.233793         0.982477
 C        -2.626561         1.270350         0.763275
 O        -3.618467        -0.930784         0.350468
 C        -3.509108        -2.319714         0.660819
 C        -2.649488        -2.887972        -0.477212
 O        -2.015144        -3.898976        -0.380962
 H         1.574518         0.030048        -1.241610
 H         1.979056        -0.298664         0.525121
 H         1.706106        -1.697823        -0.548380
 H        -2.541531        -0.386773         2.078443
 H        -1.791232         1.899062         0.469870
 H        -3.459425         1.267107         0.039782
 H        -3.101757         1.799691         1.634703
 H        -3.041703        -2.633016         1.595308
 H        -4.418174        -2.758716         0.339101
 H        -2.684577        -2.225747        -1.379288
