19
Iteration:  4428charge 0 multiplicity 1
 C         1.683597        -0.405225         0.241248
 C         0.236026        -0.511051         0.314232
 C        -0.938037        -0.358568         0.567793
 C        -2.316756        -0.308522         1.080788
 C        -2.658728         1.162065         1.037862
 O        -3.304260        -0.944695         0.149269
 C        -3.297023        -2.330791         0.379048
 C        -3.112041        -3.038117        -0.971581
 O        -2.933096        -4.232730        -0.998489
 H         2.095957        -0.587792         1.244509
 H         2.132539        -1.182817        -0.354869
 H         2.001262         0.533232        -0.184944
 H        -2.451219        -0.711271         2.054565
 H        -1.740358         1.702951         1.272944
 H        -3.091072         1.451429         0.084066
 H        -3.400227         1.510348         1.730616
 H        -2.344941        -2.651407         0.804678
 H        -4.259325        -2.543651         0.925623
 H        -3.176599        -2.407603        -1.908654
