19
Iteration:   866charge 0 multiplicity 1
 C         1.466910        -0.347567        -0.100141
 C         0.105691         0.149898         0.006200
 C        -1.092926         0.389634        -0.001164
 C        -2.634398         0.136463         0.279834
 C        -3.476679         1.033807        -0.643560
 O        -2.927008        -1.274271         0.015293
 C        -2.608706        -2.345203         1.070155
 C        -2.472786        -3.664522         0.314769
 O        -2.975173        -4.735810         0.701364
 H         2.119567        -0.116367         0.786297
 H         1.312434        -1.478006        -0.127764
 H         1.949409        -0.028207        -0.998340
 H        -3.029802         0.345110         1.283016
 H        -4.228803         1.635544        -0.003832
 H        -2.934867         1.914659        -1.003898
 H        -4.072327         0.510727        -1.372964
 H        -1.622723        -2.066041         1.617126
 H        -3.398908        -2.397104         1.879373
 H        -1.955144        -3.606595        -0.711247
