19
Iteration:  5000charge 0 multiplicity 1
 C         1.862829        -0.099205         0.686032
 C         0.363703        -0.159551         0.668363
 C        -0.824317        -0.317475         0.620070
 C        -2.233806        -0.472396         1.013980
 C        -2.786178         0.896470         1.405012
 O        -3.008258        -1.107804        -0.025242
 C        -2.474689        -2.397951        -0.277960
 C        -3.464454        -3.095017        -1.291297
 O        -4.006293        -4.162594        -0.987879
 H         2.261311         0.913417         0.517319
 H         2.303436        -0.707231         1.546204
 H         2.118650        -0.519985        -0.306248
 H        -2.116046        -1.009793         2.039286
 H        -2.689900         1.123234         2.447131
 H        -2.348928         1.878129         0.886601
 H        -3.854454         0.987476         1.226987
 H        -1.392277        -2.290958        -0.655100
 H        -2.737760        -2.975944         0.717448
 H        -3.522906        -2.537976        -2.232484
