19
Iteration:  3022charge 0 multiplicity 1
 C         1.037632        -0.902596        -0.881454
 C        -0.106843        -0.637340         0.023844
 C        -1.273511        -0.483522         0.463092
 C        -2.430488         0.033205         0.985908
 C        -2.837916         1.395707         0.483536
 O        -3.618548        -0.911197         0.221862
 C        -3.270903        -2.238675         0.743495
 C        -2.421236        -3.105719        -0.249186
 O        -1.763596        -4.114141         0.023925
 H         1.475749        -1.965370        -0.792419
 H         0.598418        -0.587262        -1.850026
 H         1.811734        -0.174799        -0.679954
 H        -2.493829        -0.197912         2.073175
 H        -3.761610         1.734783         1.011826
 H        -2.049397         2.189862         0.504499
 H        -3.109316         1.150559        -0.554020
 H        -2.600043        -2.184083         1.626215
 H        -4.284236        -2.693567         1.045421
 H        -2.668445        -2.800644        -1.226414
