19
Iteration:  1933charge 0 multiplicity 1
 C         1.502006        -0.526513        -0.228570
 C         0.046125        -0.390643        -0.140777
 C        -1.148807        -0.200950         0.097202
 C        -2.475538         0.140924         0.570835
 C        -3.425052         0.900467        -0.434529
 O        -3.370153        -1.068098         0.718565
 C        -2.663420        -2.209008         1.089707
 C        -2.778741        -3.182800        -0.027366
 O        -2.402103        -4.357120         0.025003
 H         1.928826        -0.888621         0.649361
 H         1.914266        -1.089075        -1.099669
 H         1.969013         0.453298        -0.401250
 H        -2.407367         0.791239         1.469148
 H        -4.456524         0.541551        -0.350272
 H        -3.224526         2.006011        -0.233994
 H        -3.087582         0.787372        -1.497746
 H        -1.598370        -1.912877         1.275952
 H        -3.060047        -2.711787         2.031335
 H        -3.154138        -2.763621        -0.927152
