19
Iteration:  1301charge 0 multiplicity 1
 C         1.644818         0.293045        -0.080839
 C         0.151460         0.140801        -0.006890
 C        -1.022740        -0.103993         0.265487
 C        -2.566025        -0.093000         0.368171
 C        -3.131215         1.162586        -0.291404
 O        -3.058977        -1.342991        -0.219392
 C        -2.576026        -2.404428         0.692341
 C        -3.221925        -3.682160         0.304111
 O        -2.907756        -4.813488         0.669794
 H         2.188234        -0.660194        -0.193171
 H         1.935935         1.014005        -0.936801
 H         1.900881         0.815778         0.855223
 H        -2.936457        -0.045650         1.435731
 H        -3.021656         1.352514        -1.365156
 H        -4.204358         1.335620        -0.093917
 H        -2.540703         1.896206         0.311225
 H        -1.526419        -2.572239         0.424027
 H        -2.532852        -2.192509         1.788534
 H        -3.994737        -3.433391        -0.522939
