19
Iteration:   274
 C         1.587677         0.377157         0.053295
 C         0.206469         0.049479         0.048741
 C        -1.009463        -0.082947        -0.084909
 C        -2.438164        -0.155614         0.126042
 C        -3.256679         0.722844        -0.798748
 O        -2.995422        -1.455004        -0.287530
 C        -2.326222        -2.339976         0.519894
 C        -3.319230        -3.445831         0.768832
 O        -3.103821        -4.493942         1.321866
 H         2.215532         0.232143         1.004420
 H         2.069405        -0.116434        -0.826154
 H         1.676418         1.448150        -0.149771
 H        -2.639354        -0.153452         1.159919
 H        -4.366916         0.934079        -0.541450
 H        -2.776896         1.728123        -0.741107
 H        -3.112115         0.396632        -1.836857
 H        -1.451427        -2.707653        -0.032630
 H        -1.845597        -1.962555         1.401629
 H        -4.376360        -3.346013         0.357890
