19
Iteration:   748charge 0 multiplicity 1
 C         1.528474         0.025652        -0.124848
 C         0.116450         0.027686         0.105526
 C        -1.103147         0.061894         0.004122
 C        -2.537558        -0.012563         0.303130
 C        -3.253206         0.900383        -0.711915
 O        -3.184098        -1.309967         0.244927
 C        -2.424980        -2.227858         0.864700
 C        -2.730840        -3.601024         0.218734
 O        -3.059690        -4.655953         0.780405
 H         1.877468        -0.811888        -0.784218
 H         1.753600         1.002836        -0.645607
 H         2.066167        -0.038162         0.835101
 H        -2.647671         0.452198         1.291571
 H        -4.333613         0.609916        -0.858765
 H        -3.349758         1.904623        -0.290820
 H        -2.793254         0.832207        -1.644518
 H        -1.410584        -2.114779         0.684778
 H        -2.515123        -2.201349         1.950866
 H        -2.757120        -3.497743        -0.912998
