19
Iteration:  1295charge 0 multiplicity 1
 C         1.645029         0.298049        -0.060802
 C         0.161035         0.095467         0.012038
 C        -1.034241        -0.099455         0.261241
 C        -2.534944        -0.081338         0.333489
 C        -3.167951         1.138232        -0.298472
 O        -3.102178        -1.313787        -0.185300
 C        -2.580345        -2.445094         0.662245
 C        -3.238296        -3.688460         0.258880
 O        -2.873316        -4.738333         0.693093
 H         2.270676        -0.581353        -0.296054
 H         1.991047         1.015834        -0.779107
 H         2.057815         0.669942         0.914308
 H        -2.780870        -0.001065         1.395084
 H        -3.170260         1.099026        -1.395281
 H        -4.158584         1.296390         0.144515
 H        -2.508613         1.899022         0.172959
 H        -1.514072        -2.606642         0.335234
 H        -2.384335        -2.216387         1.725356
 H        -4.061499        -3.583775        -0.443867
