19
Iteration:  4584
 C         1.471731        -0.639361        -0.011266
 C         0.169255        -0.472530         0.702160
 C        -1.004793        -0.296921         1.030710
 C        -2.389767        -0.083563         1.232796
 C        -2.998578         1.333168         0.895410
 O        -2.988149        -1.019241         0.134055
 C        -2.516172        -2.427207         0.246917
 C        -2.858913        -3.112845        -1.072428
 O        -3.470932        -4.173390        -1.159621
 H         1.089464        -1.253656        -0.878567
 H         1.808591         0.349895        -0.287741
 H         2.196900        -1.294270         0.537089
 H        -2.745408        -0.401599         2.313910
 H        -2.318303         2.001090         1.557996
 H        -2.825395         1.530495        -0.139032
 H        -4.057910         1.229304         1.263907
 H        -1.488096        -2.525909         0.401188
 H        -2.984784        -2.869203         1.167514
 H        -2.675071        -2.495125        -1.936003
