19
Iteration:  3109
 C         1.197525        -1.020379        -0.786995
 C        -0.049310        -0.567638        -0.155774
 C        -1.228013        -0.606149         0.208131
 C        -2.416893        -0.088360         0.862969
 C        -2.918529         1.363026         0.517832
 O        -3.710718        -0.935066         0.534239
 C        -3.423091        -2.382979         0.757682
 C        -2.439750        -2.883072        -0.262623
 O        -1.759654        -3.816598         0.003112
 H         2.171862        -0.603817        -0.298922
 H         1.314554        -2.123477        -0.600490
 H         1.424791        -0.864715        -1.836931
 H        -2.271602        -0.400348         1.896178
 H        -4.007072         1.305174         0.350304
 H        -2.689012         2.053753         1.297158
 H        -2.544205         1.771967        -0.443362
 H        -2.955594        -2.653828         1.724396
 H        -4.317637        -2.987302         0.744169
 H        -2.106926        -2.431318        -1.202065
