19
Iteration:  4301charge 0 multiplicity 1
 C         1.455815        -0.769300        -0.084204
 C         0.176539        -0.610804         0.530190
 C        -0.951120        -0.330121         0.845014
 C        -2.410999        -0.127641         1.093847
 C        -2.812911         1.414720         0.915452
 O        -3.351426        -0.912990         0.312124
 C        -3.273963        -2.345717         0.376923
 C        -2.691816        -3.037871        -0.932831
 O        -2.765233        -4.253550        -1.106503
 H         1.349008        -0.671109        -1.183922
 H         2.068122         0.101415         0.122148
 H         2.059272        -1.725278        -0.002365
 H        -2.719931        -0.395601         2.100138
 H        -2.046452         2.253973         1.162603
 H        -2.910744         1.626501        -0.153488
 H        -3.706361         1.708422         1.508238
 H        -2.633708        -2.507082         1.200591
 H        -4.252174        -2.834881         0.491145
 H        -2.099810        -2.418809        -1.579102
