19
Iteration:  3040charge 0 multiplicity 1
 C         1.018465        -0.835146        -0.871335
 C        -0.166176        -0.786025        -0.064006
 C        -1.183966        -0.517597         0.558473
 C        -2.552387        -0.066612         0.885235
 C        -2.870997         1.396384         0.424047
 O        -3.467079        -0.889353         0.382328
 C        -3.256815        -2.242955         0.719262
 C        -2.508507        -3.110915        -0.282904
 O        -1.746778        -3.995900         0.052222
 H         1.694694        -1.652327        -0.525278
 H         0.828563        -0.978029        -1.997876
 H         1.705103         0.020745        -0.853475
 H        -2.695545         0.046663         1.989985
 H        -3.829777         1.754435         0.765147
 H        -2.040021         2.010468         0.878929
 H        -2.891992         1.550147        -0.625881
 H        -2.889882        -2.348730         1.756302
 H        -4.231496        -2.667110         0.583701
 H        -2.814706        -2.819994        -1.420828
