19
Iteration:  1492
 C         1.731871         0.732086        -0.239301
 C         0.371620         0.359686         0.166873
 C        -0.792754        -0.020362         0.116132
 C        -2.284845        -0.176597         0.306739
 C        -3.271850         0.910349        -0.052378
 O        -2.871505        -1.447233        -0.215252
 C        -2.590141        -2.502608         0.651166
 C        -3.299540        -3.779424         0.201817
 O        -3.583997        -4.816641         0.790129
 H         1.712474         1.349767        -1.208190
 H         2.373512         1.297152         0.427140
 H         2.340496        -0.180869        -0.516462
 H        -2.263757        -0.341933         1.408184
 H        -4.214467         0.494422        -0.312727
 H        -3.206677         1.724992         0.671079
 H        -2.925190         1.265530        -0.961719
 H        -1.525339        -2.757907         0.652130
 H        -2.822864        -2.285544         1.715831
 H        -3.424886        -3.856466        -0.957568
