19
Iteration:  4567charge 0 multiplicity 1
 C         1.428595        -0.620306        -0.005775
 C         0.144538        -0.571932         0.631509
 C        -0.958595        -0.148897         0.967217
 C        -2.442877        -0.204488         1.149274
 C        -2.922532         1.252163         0.955738
 O        -2.977858        -1.035393         0.171044
 C        -2.673574        -2.365212         0.261001
 C        -2.858863        -3.061148        -1.061451
 O        -3.404659        -4.151935        -1.093512
 H         1.539825        -0.750510        -1.074912
 H         2.020510         0.293254         0.347780
 H         2.084765        -1.387980         0.408783
 H        -2.770178        -0.603791         2.071852
 H        -2.498306         1.967404         1.629260
 H        -2.757634         1.338980        -0.156824
 H        -3.965710         1.542972         1.069443
 H        -1.502507        -2.567077         0.466723
 H        -3.144184        -2.862855         1.146032
 H        -2.362169        -2.538550        -2.033564
