19
Iteration:   876charge 0 multiplicity 1
 C         1.482782        -0.341662        -0.144487
 C         0.035097         0.023897         0.010089
 C        -1.146109         0.374456         0.145844
 C        -2.597313         0.146874         0.335118
 C        -3.471060         1.014577        -0.639395
 O        -2.894571        -1.254466        -0.032777
 C        -2.674587        -2.216485         1.000305
 C        -2.518859        -3.668132         0.356057
 O        -2.920197        -4.746686         0.692832
 H         2.083872         0.289589         0.541079
 H         1.812622        -1.409662        -0.035300
 H         1.768369        -0.056528        -1.118850
 H        -2.780703         0.376381         1.390669
 H        -4.301472         1.527703        -0.043809
 H        -2.766008         1.609299        -1.224132
 H        -3.933183         0.385068        -1.427636
 H        -1.638357        -2.110695         1.348808
 H        -3.443082        -2.298726         1.780790
 H        -1.939763        -3.514199        -0.603129
