19
Iteration:  1389charge 0 multiplicity 1
 C         1.591333         0.447638        -0.386438
 C         0.301063         0.257467         0.220105
 C        -0.913977         0.157134         0.268805
 C        -2.350721        -0.071280         0.530565
 C        -3.258301         0.741641        -0.408506
 O        -2.693242        -1.361118         0.028383
 C        -2.738227        -2.446561         1.000857
 C        -3.229133        -3.643359         0.085507
 O        -3.296888        -4.775088         0.466360
 H         2.391909         0.738935         0.268176
 H         1.977606        -0.550492        -0.771931
 H         1.626165         1.144839        -1.214924
 H        -2.674828         0.004119         1.581386
 H        -3.223677         1.780864        -0.146546
 H        -2.868123         0.810929        -1.415394
 H        -4.217493         0.122763        -0.437744
 H        -1.711634        -2.673460         1.338136
 H        -3.373625        -2.307682         1.918313
 H        -3.760957        -3.429529        -0.834548
