19
Iteration:  4673charge 0 multiplicity 1
 C         1.795576        -0.553239         0.265400
 C         0.320363        -0.485279         0.555752
 C        -0.864194        -0.227338         0.842201
 C        -2.357589        -0.205914         1.110307
 C        -3.063191         1.242275         0.949547
 O        -3.161831        -1.074343         0.292642
 C        -2.504474        -2.416992         0.230606
 C        -3.315094        -3.034298        -1.002354
 O        -3.431746        -4.196552        -1.323825
 H         2.406749        -0.876894         1.174430
 H         1.996439        -1.264833        -0.600617
 H         2.189024         0.475074        -0.027211
 H        -2.345502        -0.579746         2.192198
 H        -2.799617         2.067383         1.634017
 H        -2.818118         1.785007        -0.018672
 H        -4.192106         1.116752         0.972530
 H        -1.432393        -2.470393         0.049347
 H        -2.824236        -2.805277         1.255249
 H        -3.697342        -2.153879        -1.673864
