19
Iteration:  1207charge 0 multiplicity 1
 C         1.390153        -0.137786         0.169464
 C         0.015284         0.176633        -0.069555
 C        -1.154218         0.187170         0.093005
 C        -2.513122         0.059856         0.470094
 C        -3.265421         0.990192        -0.551526
 O        -3.017684        -1.279120         0.237339
 C        -2.175990        -2.390277         0.273085
 C        -3.124165        -3.570054         0.367129
 O        -2.843843        -4.730306         0.671038
 H         2.087799         0.426431        -0.410989
 H         1.481008         0.111377         1.192992
 H         1.543250        -1.222192         0.121621
 H        -2.692244         0.381780         1.502463
 H        -4.239430         0.686211        -0.848772
 H        -3.493348         1.976231        -0.142421
 H        -2.563399         1.177894        -1.428988
 H        -1.629975        -2.711575        -0.642722
 H        -1.462417        -2.336837         1.106932
 H        -4.172312        -3.347766        -0.067483
