19
Iteration:  1572charge 0 multiplicity 1
 C         1.669587         0.701923        -0.154323
 C         0.199907         0.361851        -0.051985
 C        -0.922900        -0.136134         0.219642
 C        -2.349204        -0.286321         0.528202
 C        -3.094685         0.869916        -0.100691
 O        -2.970816        -1.417285        -0.113407
 C        -2.209856        -2.589340         0.208525
 C        -3.268706        -3.699889         0.172907
 O        -3.630899        -4.573544         0.998533
 H         2.162570        -0.108997        -0.738183
 H         1.845944         1.696794        -0.698611
 H         2.052464         0.792174         0.862256
 H        -2.400766        -0.468276         1.630711
 H        -2.837853         0.761522        -1.148168
 H        -4.128575         0.567733        -0.101529
 H        -3.129332         1.810835         0.460447
 H        -1.592341        -2.804948        -0.668157
 H        -1.700403        -2.625864         1.174843
 H        -3.811518        -3.657734        -0.862932
