19
Iteration:   483
 C         1.523396         0.400390         0.013252
 C         0.085944         0.352628         0.116923
 C        -1.101322         0.128603         0.174108
 C        -2.444948        -0.100152         0.145105
 C        -3.180208         0.967510        -0.760745
 O        -2.844737        -1.449603        -0.173780
 C        -2.218631        -2.670127         0.444754
 C        -3.183990        -3.836803         0.337462
 O        -3.298179        -4.531355         1.365458
 H         1.793104        -0.544150        -0.508406
 H         1.886279         1.242193        -0.584495
 H         1.969169         0.552122         0.929665
 H        -2.891790         0.078741         1.166642
 H        -4.011573         1.346710        -0.167127
 H        -2.429954         1.690415        -1.143451
 H        -3.550604         0.477272        -1.690752
 H        -1.117829        -2.986814         0.348830
 H        -2.240364        -2.417339         1.494864
 H        -3.747720        -3.871431        -0.613585
