19
Iteration:  3224charge 0 multiplicity 1
 C         1.008510        -1.333096        -0.623259
 C        -0.046425        -0.465028         0.009009
 C        -1.161095        -0.128144         0.300665
 C        -2.474480         0.096269         0.914811
 C        -3.256080         1.492018         0.583803
 O        -3.346296        -0.956759         0.377248
 C        -3.116215        -2.336142         0.732273
 C        -2.363940        -3.059674        -0.322341
 O        -1.848074        -4.124824        -0.215947
 H         0.593021        -1.453584        -1.585364
 H         2.017775        -0.942321        -0.620078
 H         0.719836        -2.409029        -0.338605
 H        -2.364774         0.054491         2.026817
 H        -3.034549         2.332607         1.302302
 H        -3.126282         1.822627        -0.527024
 H        -4.284927         1.289913         0.793815
 H        -2.844988        -2.466949         1.821736
 H        -4.114480        -2.914165         0.650396
 H        -2.353635        -2.393705        -1.331179
