19
Iteration:  4163
 C         1.285619        -1.297202        -0.198986
 C        -0.010826        -0.715862         0.188714
 C        -1.053375        -0.365172         0.711747
 C        -2.499099        -0.061387         1.097683
 C        -3.038948         1.475671         0.824930
 O        -3.458000        -0.987872         0.490925
 C        -3.075944        -2.299305         0.582650
 C        -2.463823        -2.742016        -0.809515
 O        -2.351548        -3.937667        -1.050282
 H         1.875170        -1.481407         0.742519
 H         1.126278        -2.276944        -0.805438
 H         1.727749        -0.526332        -0.831908
 H        -2.421285        -0.054138         2.170196
 H        -2.398411         2.140379         1.440174
 H        -2.815559         1.610138        -0.215939
 H        -4.078035         1.662477         1.198553
 H        -2.312733        -2.407129         1.351029
 H        -3.928125        -2.921503         0.715544
 H        -2.396640        -2.067692        -1.692461
