19
Iteration:   777
 C         1.436781        -0.038478        -0.015333
 C         0.047500        -0.376891         0.006923
 C        -1.121728        -0.035352        -0.061389
 C        -2.558670         0.146370         0.263670
 C        -3.522814         1.017800        -0.667076
 O        -2.989893        -1.252459         0.228185
 C        -2.293545        -2.240485         0.903395
 C        -2.569394        -3.604211         0.169502
 O        -3.083118        -4.510171         0.770417
 H         2.193535        -0.858550         0.120508
 H         1.646031         0.660728        -0.873270
 H         1.575797         0.630317         0.833559
 H        -2.618097         0.644991         1.279669
 H        -4.460709         0.434836        -0.649348
 H        -3.676030         1.948461        -0.114867
 H        -3.135912         1.053889        -1.761316
 H        -1.104865        -2.085701         0.888871
 H        -2.700059        -2.370945         1.973350
 H        -2.430494        -3.507664        -0.935412
