19
Iteration:  4323charge 0 multiplicity 1
 C         1.546055        -0.630109        -0.059043
 C         0.151646        -0.509378         0.400159
 C        -0.986644        -0.470524         0.903403
 C        -2.352202        -0.130322         1.211164
 C        -2.777858         1.271514         0.831409
 O        -3.278999        -0.881738         0.263739
 C        -3.372222        -2.322772         0.415298
 C        -2.825146        -3.073907        -0.862132
 O        -2.749243        -4.249755        -1.170414
 H         1.691391        -1.182610        -1.015925
 H         2.071084         0.319998        -0.208185
 H         2.135292        -1.354488         0.614162
 H        -2.590677        -0.187094         2.312165
 H        -2.221789         2.156773         1.349838
 H        -2.420119         1.587513        -0.137561
 H        -3.824992         1.542304         1.113092
 H        -2.868347        -2.709453         1.271199
 H        -4.422325        -2.581876         0.622677
 H        -2.559849        -2.309594        -1.615321
