19
Iteration:    98charge 0 multiplicity 1
 C         1.732264         0.299610        -0.138964
 C         0.244940         0.524425        -0.240047
 C        -0.882823         0.035521        -0.024675
 C        -2.338171        -0.146662         0.059846
 C        -3.144241         0.522848        -1.072124
 O        -2.847317        -1.466074        -0.071827
 C        -2.767099        -2.261848         1.132856
 C        -3.574240        -3.550316         1.085006
 O        -3.042966        -4.619827         0.925788
 H         2.343449         1.056702        -0.641299
 H         2.123177         0.058750         0.883413
 H         1.966994        -0.696881        -0.654052
 H        -2.770343         0.219932         1.053720
 H        -4.016943         1.062754        -0.691825
 H        -2.485771         1.170006        -1.617771
 H        -3.531421        -0.172393        -1.830849
 H        -1.700765        -2.595363         1.280334
 H        -3.054492        -1.534189         1.964534
 H        -4.727574        -3.498921         0.901984
