19
Iteration:  4390
 C         1.671548        -0.377870         0.117571
 C         0.288541        -0.561727         0.496122
 C        -0.923818        -0.601016         0.598481
 C        -2.340961        -0.169023         1.013151
 C        -2.644586         1.324200         0.972467
 O        -3.415932        -0.855655         0.295545
 C        -3.330585        -2.305845         0.382573
 C        -3.043606        -3.130688        -0.954877
 O        -2.846864        -4.328363        -1.107546
 H         2.246375        -1.250132         0.477267
 H         1.682416        -0.326160        -1.010429
 H         2.073906         0.571936         0.554417
 H        -2.321294        -0.472183         2.126434
 H        -2.055082         1.745745         1.830888
 H        -2.273093         1.880918         0.094476
 H        -3.756860         1.287717         1.266984
 H        -2.791055        -2.600664         1.241795
 H        -4.258118        -2.778453         0.667527
 H        -3.324640        -2.462197        -1.886823
