19
Iteration:   500
 C         1.663728         0.501045        -0.015520
 C         0.210948         0.215534         0.184374
 C        -1.022563         0.218762         0.070491
 C        -2.523540        -0.090183         0.213718
 C        -3.264087         0.873142        -0.803373
 O        -2.891251        -1.512685        -0.150927
 C        -2.308494        -2.557553         0.576792
 C        -3.223586        -3.746905         0.400560
 O        -3.314694        -4.636105         1.232597
 H         2.298411        -0.377490        -0.157292
 H         1.799977         1.153777        -0.904824
 H         2.154387         1.110608         0.926876
 H        -2.836333         0.118503         1.238434
 H        -4.098345         1.426146        -0.268766
 H        -2.447984         1.503151        -1.164318
 H        -3.612879         0.339684        -1.669086
 H        -1.420302        -2.767775         0.025233
 H        -2.056045        -2.395648         1.690794
 H        -3.743309        -3.926294        -0.599769
