19
Iteration:  4061charge 0 multiplicity 1
 C         1.249682        -1.251301        -0.397446
 C        -0.020532        -0.779455         0.228084
 C        -1.166067        -0.554946         0.561930
 C        -2.431717        -0.237781         1.173543
 C        -2.791849         1.210177         0.603229
 O        -3.610954        -0.921972         0.617210
 C        -3.502404        -2.336520         0.567613
 C        -2.616159        -2.597126        -0.656835
 O        -1.836217        -3.526491        -0.801515
 H         0.981408        -2.004363        -1.157267
 H         1.747075        -0.444336        -0.963568
 H         1.927595        -1.632298         0.427746
 H        -2.434601        -0.216544         2.286108
 H        -2.082060         1.867650         1.122452
 H        -2.421246         1.200085        -0.436854
 H        -3.839550         1.337972         0.658944
 H        -3.086374        -2.831550         1.426832
 H        -4.456993        -2.663501         0.168581
 H        -2.672632        -2.053356        -1.635393
