19
Iteration:  4048
 C         1.255427        -1.254187        -0.384449
 C        -0.052814        -0.821390         0.086478
 C        -1.117147        -0.619956         0.614973
 C        -2.493728        -0.160909         1.060586
 C        -2.753279         1.247712         0.632448
 O        -3.635263        -0.949057         0.668046
 C        -3.516459        -2.361099         0.508312
 C        -2.590356        -2.602379        -0.637622
 O        -1.778060        -3.518124        -0.770333
 H         1.111176        -1.823022        -1.244618
 H         1.834899        -0.438347        -0.585537
 H         1.759848        -1.897896         0.355830
 H        -2.507434        -0.373547         2.174427
 H        -2.433847         2.037343         1.217352
 H        -2.413321         1.334424        -0.387907
 H        -3.787011         1.486967         0.771987
 H        -3.257065        -2.826264         1.474841
 H        -4.561990        -2.725825         0.396651
 H        -2.747303        -1.616013        -1.201354
