19
Iteration:  2722
 C         1.539491        -0.218416        -0.588332
 C         0.094519        -0.288743        -0.135438
 C        -1.037733        -0.397983         0.244176
 C        -2.391983         0.099978         0.734712
 C        -3.235100         1.142765        -0.167497
 O        -3.230187        -1.092734         0.862243
 C        -2.842202        -2.381635         1.165748
 C        -2.794845        -3.264267        -0.168785
 O        -2.728982        -4.498475        -0.208170
 H         1.706670        -1.245871        -0.799785
 H         1.667105         0.337833        -1.569480
 H         2.314598         0.224357         0.037636
 H        -2.368261         0.597345         1.701683
 H        -3.991747         1.637881         0.510681
 H        -2.554418         1.847978        -0.581093
 H        -3.634395         0.551847        -1.035495
 H        -1.876946        -2.508714         1.683782
 H        -3.761517        -2.861634         1.648874
 H        -2.994365        -2.641924        -1.144230
