19
Iteration:  4910
 C         1.805757        -0.105130         0.436345
 C         0.467792        -0.287392         0.814230
 C        -0.728945        -0.183463         0.938958
 C        -2.242507        -0.455365         1.091178
 C        -3.023258         0.852641         1.157611
 O        -2.747660        -1.085695        -0.034758
 C        -2.540669        -2.534573        -0.101775
 C        -3.485273        -3.011321        -1.175443
 O        -4.027984        -4.081703        -1.134124
 H         2.564362        -0.752003         0.849554
 H         1.911455        -0.224768        -0.703189
 H         2.031059         0.964356         0.609013
 H        -2.465260        -1.058805         2.011738
 H        -2.472603         1.690862         1.534265
 H        -3.012338         1.118647         0.072752
 H        -3.946635         0.546894         1.689727
 H        -1.459801        -2.639653        -0.191654
 H        -2.863152        -3.079314         0.879775
 H        -3.791879        -2.393724        -2.106991
