19
Iteration:   745charge 0 multiplicity 1
 C         1.562458         0.035391        -0.137380
 C         0.105782         0.081873         0.094852
 C        -1.095422         0.054277         0.054047
 C        -2.536747        -0.029024         0.305225
 C        -3.250098         0.894152        -0.727973
 O        -3.198848        -1.304382         0.238508
 C        -2.436371        -2.258539         0.875290
 C        -2.750581        -3.625626         0.217398
 O        -3.051208        -4.649755         0.778585
 H         1.861770        -0.805640        -0.864691
 H         1.897851         1.010238        -0.652145
 H         2.045643        -0.149675         0.819870
 H        -2.685010         0.467508         1.308417
 H        -4.333503         0.699944        -0.838837
 H        -3.289147         1.909662        -0.327285
 H        -2.820378         0.922928        -1.800448
 H        -1.333984        -2.126913         0.732203
 H        -2.539325        -2.195660         2.007879
 H        -2.859941        -3.523384        -0.891086
