19
Iteration:   158charge 0 multiplicity 1
 C         1.497090         0.540627        -0.259525
 C         0.222378        -0.040326         0.102230
 C        -0.993499        -0.084224         0.110385
 C        -2.384030        -0.099710         0.047017
 C        -3.043813         0.627485        -1.153863
 O        -2.851824        -1.418688         0.041332
 C        -2.454877        -2.291486         1.053458
 C        -3.397151        -3.448762         0.865205
 O        -3.203120        -4.637769         0.946780
 H         1.747409         0.371358        -1.319964
 H         1.441630         1.620533        -0.176571
 H         2.351672         0.141766         0.242690
 H        -2.724302         0.441654         0.888184
 H        -2.482279         1.432095        -1.571234
 H        -3.046650        -0.141694        -1.980372
 H        -4.088465         0.843838        -0.903322
 H        -1.375146        -2.490327         0.995027
 H        -2.666322        -1.961902         2.082292
 H        -4.488408        -3.033087         0.702818
