19
Iteration:  3770charge 0 multiplicity 1
 C         1.421929        -0.766681        -0.512277
 C         0.014466        -0.678031         0.094879
 C        -1.173220        -0.528899         0.434580
 C        -2.440862        -0.269721         1.040580
 C        -2.662708         1.308659         0.715117
 O        -3.671268        -0.922970         0.496005
 C        -3.620648        -2.364844         0.477981
 C        -2.575628        -2.865061        -0.547954
 O        -1.992860        -3.915536        -0.383581
 H         1.327016        -1.022110        -1.615577
 H         1.679175         0.256721        -0.646019
 H         1.984880        -1.383783         0.242103
 H        -2.170600        -0.487147         2.067013
 H        -1.660367         1.686173         0.475608
 H        -3.360282         1.188347        -0.185496
 H        -3.132695         1.978205         1.408866
 H        -3.229210        -2.815883         1.416718
 H        -4.541911        -2.771425         0.100091
 H        -2.677714        -2.434438        -1.580921
