19
Iteration:  3838charge 0 multiplicity 1
 C         1.126842        -1.100793        -0.530366
 C        -0.134034        -0.712642        -0.043567
 C        -1.094924        -0.318739         0.591361
 C        -2.492595        -0.115820         1.026062
 C        -2.891600         1.379837         0.903799
 O        -3.462551        -0.915472         0.306220
 C        -3.325287        -2.304699         0.526175
 C        -2.387623        -2.849764        -0.542073
 O        -2.032562        -4.009044        -0.504098
 H         1.511950        -2.106843        -0.347728
 H         1.067685        -1.097635        -1.624072
 H         1.855085        -0.339788        -0.023381
 H        -2.697231        -0.439609         2.032194
 H        -2.715607         1.715055         1.952123
 H        -2.283072         1.962599         0.202014
 H        -3.972751         1.529183         0.764764
 H        -2.894203        -2.457454         1.528366
 H        -4.264599        -2.747991         0.783488
 H        -2.134840        -2.149212        -1.382491
