19
Iteration:  1802
 C         1.442572         0.012155        -0.314766
 C         0.075402        -0.145564         0.045235
 C        -1.050550         0.118271         0.145138
 C        -2.483059         0.142921         0.509366
 C        -3.132008         1.175237        -0.447914
 O        -3.079399        -1.303323         0.357097
 C        -2.440386        -2.427957         0.989287
 C        -3.068628        -3.582472         0.146810
 O        -2.936619        -4.817632         0.294328
 H         1.577985         0.332049        -1.335649
 H         1.959466         0.895518         0.197521
 H         1.998252        -0.935308        -0.111008
 H        -2.655543         0.591564         1.482668
 H        -4.210627         1.019074        -0.504822
 H        -3.099816         2.173705        -0.056419
 H        -2.538848         1.141373        -1.398689
 H        -1.390420        -2.297772         0.941491
 H        -2.689666        -2.567971         2.072202
 H        -3.675080        -3.164551        -0.656502
