19
Iteration:    61charge 0 multiplicity 1
 C         1.760689         0.229300        -0.162237
 C         0.257724         0.162727        -0.085342
 C        -0.963296         0.132604        -0.178489
 C        -2.452287        -0.038328        -0.021898
 C        -3.252789         0.716793        -1.143807
 O        -2.704117        -1.501943        -0.043702
 C        -2.763695        -2.232747         1.189021
 C        -3.491189        -3.552611         0.995682
 O        -3.020795        -4.671420         1.063171
 H         2.112053         1.227867         0.154514
 H         2.281952        -0.511614         0.468543
 H         1.978137         0.148861        -1.253640
 H        -2.692728         0.416627         1.013892
 H        -4.282875         0.316762        -1.194070
 H        -3.403996         1.753181        -0.688287
 H        -2.748612         0.736768        -2.143236
 H        -1.800397        -2.578589         1.616477
 H        -3.296235        -1.620806         1.972452
 H        -4.535013        -3.360758         0.564443
