19
Iteration:    67
 C         1.757618         0.224460        -0.163649
 C         0.271198         0.241126        -0.080800
 C        -0.966279         0.194654        -0.206115
 C        -2.392212        -0.043991        -0.004646
 C        -3.211250         0.673152        -1.113225
 O        -2.770528        -1.518150        -0.064324
 C        -2.786582        -2.282770         1.177597
 C        -3.482408        -3.532370         1.038269
 O        -3.029336        -4.676560         1.035827
 H         2.139301         1.248751         0.041208
 H         2.212796        -0.472488         0.538343
 H         1.958460        -0.023782        -1.195349
 H        -2.642934         0.298249         0.959584
 H        -4.289829         0.391012        -1.088525
 H        -3.180734         1.695338        -0.824849
 H        -2.804085         0.552645        -2.090859
 H        -1.821041        -2.495890         1.675330
 H        -3.387281        -1.708833         1.878407
 H        -4.513810        -3.291376         0.729763
