19
Iteration:  3244charge 0 multiplicity 1
 C         0.980989        -1.311168        -0.671349
 C        -0.172019        -0.647323        -0.000923
 C        -1.110553        -0.005237         0.464724
 C        -2.476723         0.149595         0.894161
 C        -3.267716         1.400813         0.539416
 O        -3.362452        -0.908162         0.382257
 C        -3.178020        -2.222382         0.800791
 C        -2.222330        -3.053740        -0.315132
 O        -1.858702        -4.209807        -0.312526
 H         0.781539        -1.860957        -1.614040
 H         1.700989        -0.512906        -0.719443
 H         1.355065        -2.166049         0.020277
 H        -2.531502        -0.034380         1.960014
 H        -2.523043         2.194368         0.795953
 H        -3.518283         1.449067        -0.586437
 H        -4.114647         1.535408         1.195341
 H        -2.742297        -2.542702         1.707911
 H        -4.151759        -2.715504         0.660621
 H        -2.187227        -2.377458        -1.164768
