19
Iteration:  2067charge 0 multiplicity 1
 C         1.031570        -1.124122        -0.549979
 C        -0.149155        -0.540668        -0.002287
 C        -1.274088        -0.204206         0.337178
 C        -2.651815         0.101184         0.603183
 C        -3.153630         1.239318        -0.251363
 O        -3.523791        -1.009887         0.518520
 C        -3.220112        -2.331948         1.039351
 C        -2.213625        -2.983634        -0.003377
 O        -1.576271        -4.043959         0.071840
 H         1.178278        -0.680507        -1.510614
 H         1.917143        -0.980252         0.094369
 H         0.756595        -2.212363        -0.630323
 H        -2.595808         0.524242         1.644704
 H        -3.974992         1.870706         0.203055
 H        -2.332726         1.953844        -0.446477
 H        -3.528725         0.807944        -1.222345
 H        -2.649155        -2.151872         1.982994
 H        -4.189331        -2.914756         1.237784
 H        -2.236241        -2.423300        -0.939309
