19
Iteration:  1131charge 0 multiplicity 1
 C         1.376957        -0.166285        -0.044041
 C        -0.000369        -0.144335         0.369542
 C        -1.148955         0.132742         0.074929
 C        -2.604231         0.027314         0.291579
 C        -3.301220         1.096374        -0.573296
 O        -3.081878        -1.266116        -0.037951
 C        -2.296861        -2.279309         0.672184
 C        -3.060426        -3.511793         0.463593
 O        -2.587885        -4.654520         0.551159
 H         2.032052         0.275832         0.680551
 H         1.644205        -1.176527        -0.148451
 H         1.507782         0.313876        -1.031920
 H        -2.833237         0.258116         1.369740
 H        -4.104552         1.681662        -0.164031
 H        -2.565782         1.697472        -1.110195
 H        -3.752838         0.527706        -1.495519
 H        -1.287020        -2.286371         0.334157
 H        -2.212152        -2.283334         1.774282
 H        -4.139366        -3.357493         0.455335
