19
Iteration:   254charge 0 multiplicity 1
 C         1.628181         0.455235        -0.026812
 C         0.200275         0.081830        -0.010371
 C        -1.005758        -0.036530         0.007391
 C        -2.472084        -0.097697         0.053487
 C        -3.106463         0.903728        -0.974831
 O        -3.037392        -1.428793        -0.121640
 C        -2.348987        -2.486421         0.550037
 C        -3.355296        -3.567207         0.811393
 O        -3.132661        -4.645080         1.314179
 H         2.272075        -0.094456         0.755671
 H         2.106015         0.227030        -0.996915
 H         1.735850         1.474573         0.267799
 H        -2.917922         0.133318         1.076940
 H        -4.077722         0.468856        -1.195200
 H        -3.311369         1.847406        -0.471678
 H        -2.524365         1.123086        -1.831695
 H        -1.417009        -2.893034         0.121627
 H        -2.043918        -2.116362         1.561629
 H        -4.442693        -3.257579         0.652017
