19
Iteration:    79charge 0 multiplicity 1
 C         1.694845         0.232684        -0.180692
 C         0.297668         0.380421        -0.098658
 C        -0.924418         0.255433        -0.193119
 C        -2.332763        -0.119707         0.000228
 C        -3.126346         0.599132        -1.030164
 O        -2.866816        -1.545405        -0.094649
 C        -2.757690        -2.206610         1.185639
 C        -3.547621        -3.579540         1.007816
 O        -3.041911        -4.668144         1.003873
 H         2.281568         1.192632        -0.174216
 H         2.005834        -0.315352         0.705978
 H         2.044544        -0.314045        -0.998787
 H        -2.599601         0.202700         0.964641
 H        -4.233124         0.481870        -0.818728
 H        -2.839453         1.596129        -1.191845
 H        -2.916643         0.061308        -1.934581
 H        -1.706841        -2.232856         1.491532
 H        -3.359488        -1.727504         1.951010
 H        -4.631510        -3.495507         1.096864
