19
Iteration:   997
 C         1.540214         0.112462        -0.229842
 C         0.101822        -0.172392        -0.096593
 C        -1.067202        -0.124805         0.205369
 C        -2.460989        -0.046725         0.414894
 C        -3.016726         1.004212        -0.632736
 O        -3.223741        -1.188984         0.065179
 C        -3.157552        -2.324935         0.991124
 C        -2.848946        -3.574360         0.161512
 O        -2.527704        -4.584153         0.788484
 H         2.043858        -0.237796        -1.152736
 H         1.620369         1.239668        -0.182829
 H         2.059054        -0.288324         0.616822
 H        -2.710781         0.309089         1.440141
 H        -4.089085         0.658581        -0.964589
 H        -3.191213         1.987593        -0.053457
 H        -2.282298         1.152689        -1.448064
 H        -2.275620        -2.228657         1.651918
 H        -4.090781        -2.430585         1.573327
 H        -2.996010        -3.501161        -0.968568
