19
Iteration:  3996
 C         1.054326        -1.335484        -0.367555
 C        -0.213252        -0.907576         0.157400
 C        -1.329710        -0.476292         0.385257
 C        -2.466992        -0.137921         1.105924
 C        -2.815397         1.313047         0.766012
 O        -3.602985        -0.833173         0.614164
 C        -3.289440        -2.283194         0.488114
 C        -2.386498        -2.683946        -0.747369
 O        -1.733214        -3.687989        -0.670209
 H         1.290217        -0.677680        -1.282138
 H         1.839469        -1.109314         0.444130
 H         1.051482        -2.481628        -0.565960
 H        -2.203608        -0.350260         2.142716
 H        -2.027499         2.011312         1.191151
 H        -2.875718         1.522372        -0.334820
 H        -3.613861         1.628531         1.399226
 H        -2.736687        -2.483815         1.412457
 H        -4.231228        -2.814226         0.542580
 H        -2.590528        -1.955596        -1.604193
