19
Iteration:  1985charge 0 multiplicity 1
 C         1.328520        -0.782122        -0.260430
 C        -0.033612        -0.328395        -0.131398
 C        -1.195900        -0.093066         0.058440
 C        -2.582298         0.172817         0.522994
 C        -3.365044         1.166427        -0.459478
 O        -3.361660        -0.990615         0.877163
 C        -2.904404        -2.305040         1.182481
 C        -2.503756        -3.282335        -0.027795
 O        -2.088902        -4.408456        -0.109816
 H         2.066421        -0.192979         0.455804
 H         1.327402        -1.863278        -0.030740
 H         1.756864        -0.599549        -1.258966
 H        -2.475747         0.888197         1.384187
 H        -4.271140         1.487991         0.040981
 H        -2.709159         1.951830        -0.822503
 H        -3.696403         0.605029        -1.391639
 H        -2.147402        -2.329266         2.013633
 H        -3.791751        -2.753693         1.625104
 H        -2.611397        -2.596126        -0.980842
