19
Iteration:  3373charge 0 multiplicity 1
 C         1.461707        -0.840778        -0.483981
 C         0.043380        -0.679700        -0.035929
 C        -1.084905        -0.406389         0.344173
 C        -2.470046        -0.065316         0.862570
 C        -3.041738         1.203788         0.345051
 O        -3.558927        -0.985747         0.674422
 C        -3.313457        -2.297713         0.793611
 C        -2.811287        -3.033869        -0.476307
 O        -1.935390        -3.896228        -0.337875
 H         2.170946        -0.461986         0.306730
 H         1.597341        -1.903637        -0.665348
 H         1.485331        -0.205280        -1.332884
 H        -2.414369        -0.043341         1.973983
 H        -2.238952         1.847832        -0.022121
 H        -3.883666         1.142309        -0.399415
 H        -3.315043         1.834519         1.150049
 H        -2.426432        -2.478970         1.507576
 H        -4.140159        -2.849646         1.261628
 H        -3.171144        -2.528633        -1.440455
