19
Iteration:  3054charge 0 multiplicity 1
 C         1.092732        -0.848415        -0.871864
 C        -0.224786        -0.830003        -0.165373
 C        -1.115008        -0.394597         0.587413
 C        -2.474725         0.007489         0.926620
 C        -2.834148         1.396670         0.398203
 O        -3.507577        -0.989958         0.416331
 C        -3.405259        -2.378248         0.715093
 C        -2.511321        -3.050630        -0.310950
 O        -1.750604        -3.904080         0.060185
 H         1.905389        -1.490163        -0.322201
 H         0.947180        -1.351847        -1.893754
 H         1.323189         0.192970        -0.915876
 H        -2.559425        -0.065967         2.045392
 H        -3.896793         1.650930         0.555056
 H        -2.249807         2.122578         1.033518
 H        -2.463546         1.506902        -0.615785
 H        -2.964301        -2.653515         1.694230
 H        -4.446067        -2.810050         0.783836
 H        -2.627717        -2.822231        -1.411789
