19
Iteration:  4866
 C         1.833411        -0.124559         0.361222
 C         0.375629        -0.065812         0.746328
 C        -0.777747        -0.273548         1.086555
 C        -2.183255        -0.388272         1.152851
 C        -2.919030         0.966783         1.013932
 O        -2.759357        -1.225445         0.036271
 C        -2.563779        -2.592009         0.031901
 C        -3.632982        -3.016302        -1.071011
 O        -3.938062        -4.146502        -1.371616
 H         2.207621        -1.021224        -0.083648
 H         2.185458         0.639409        -0.342439
 H         2.510927         0.183543         1.147508
 H        -2.353103        -0.864729         2.090241
 H        -2.585249         1.601731         1.839285
 H        -2.582738         1.499114         0.145664
 H        -3.997526         0.786348         1.128809
 H        -1.613424        -2.997098        -0.185876
 H        -2.819302        -2.994604         1.070292
 H        -4.261487        -2.164355        -1.437113
