19
Iteration:  1090charge 0 multiplicity 1
 C         1.524752        -0.155628         0.020101
 C         0.088991         0.112337        -0.208585
 C        -1.025995        -0.013157         0.271231
 C        -2.542954         0.049801         0.331749
 C        -3.215610         1.135733        -0.600594
 O        -3.176450        -1.259012        -0.070690
 C        -2.768372        -2.300516         0.875560
 C        -3.164841        -3.702762         0.487231
 O        -2.393870        -4.647160         0.536488
 H         1.717088        -0.492425         1.064185
 H         2.023099        -0.754938        -0.740272
 H         1.977425         0.883204        -0.034693
 H        -2.834156         0.194990         1.367847
 H        -3.978730         1.548860         0.015445
 H        -2.598799         1.966474        -0.878155
 H        -3.620648         0.622818        -1.485164
 H        -1.655473        -2.297041         0.940443
 H        -3.228790        -2.023941         1.839104
 H        -4.269136        -3.882262         0.254802
