19
Iteration:  2718
 C         1.520853        -0.222155        -0.598801
 C         0.134911        -0.247470        -0.100562
 C        -1.024690        -0.387188         0.196208
 C        -2.415668         0.080711         0.729239
 C        -3.224572         1.106353        -0.144735
 O        -3.247283        -1.071626         0.854030
 C        -2.865401        -2.364331         1.197599
 C        -2.803142        -3.275608        -0.145159
 O        -2.736233        -4.507525        -0.241737
 H         1.817597        -1.244962        -0.936630
 H         1.687430         0.329677        -1.488218
 H         2.344439         0.065506         0.131340
 H        -2.296340         0.592706         1.727505
 H        -4.019880         1.622161         0.352184
 H        -2.543310         1.851842        -0.664032
 H        -3.672738         0.546603        -0.913466
 H        -1.801658        -2.384529         1.670688
 H        -3.603796        -2.915613         1.794985
 H        -2.901112        -2.699179        -1.144936
