19
Iteration:  1966
 C         1.433774        -0.740838        -0.219830
 C         0.056723        -0.154680        -0.181457
 C        -1.120619        -0.130482         0.011943
 C        -2.498203         0.137744         0.488620
 C        -3.415986         0.939221        -0.415823
 O        -3.383560        -1.045041         0.832990
 C        -2.878120        -2.334876         1.142806
 C        -2.643404        -3.176576        -0.097939
 O        -2.220350        -4.296433         0.023488
 H         1.900743        -0.557211         0.687952
 H         1.208411        -1.820148        -0.346347
 H         1.997987        -0.222239        -1.002769
 H        -2.241786         0.556125         1.467981
 H        -4.423032         1.022807         0.033545
 H        -3.008275         2.036193        -0.321174
 H        -3.433112         0.651151        -1.480063
 H        -1.939730        -2.273780         1.769077
 H        -3.550490        -3.015420         1.754296
 H        -2.900745        -2.589065        -1.077515
