19
Iteration:  4257
 C         1.403890        -1.024469        -0.052265
 C         0.037527        -0.598037         0.277854
 C        -1.079220        -0.382054         0.683772
 C        -2.483996        -0.081417         1.110910
 C        -2.992048         1.359406         0.974400
 O        -3.336173        -0.867903         0.254837
 C        -3.039544        -2.247956         0.468665
 C        -2.478997        -2.957775        -0.746187
 O        -2.721307        -4.113363        -1.115253
 H         1.944009        -0.344900        -0.744512
 H         2.064092        -1.149567         0.782475
 H         1.263466        -2.025487        -0.584626
 H        -2.553425        -0.577888         2.043845
 H        -2.117572         1.945227         1.487487
 H        -3.152445         1.523179        -0.121748
 H        -3.821572         1.529919         1.670152
 H        -2.102627        -2.231338         1.020213
 H        -4.033719        -2.676024         0.860408
 H        -1.845568        -2.300238        -1.374866
