19
Iteration:  4149
 C         1.203057        -1.221643        -0.192205
 C        -0.144082        -0.812620         0.197788
 C        -1.162932        -0.372565         0.672286
 C        -2.485107        -0.003076         1.173980
 C        -2.882088         1.382990         0.790326
 O        -3.412280        -0.898657         0.457022
 C        -3.018963        -2.340963         0.547967
 C        -2.567789        -2.774470        -0.748250
 O        -2.243470        -3.908491        -1.060782
 H         1.755483        -1.664638         0.630644
 H         1.176947        -1.954446        -0.973916
 H         1.867314        -0.456835        -0.570762
 H        -2.721749        -0.362314         2.210963
 H        -2.134503         2.155937         1.118721
 H        -3.091896         1.540580        -0.263488
 H        -3.856297         1.584742         1.162786
 H        -2.297807        -2.632731         1.326123
 H        -3.904754        -2.923147         0.919682
 H        -2.454418        -1.855169        -1.315941
