19
Iteration:  2811
 C         1.313993        -0.617121        -0.732843
 C         0.030886        -0.290166        -0.067676
 C        -1.096906        -0.147879         0.331026
 C        -2.508045         0.066232         0.788651
 C        -3.057274         1.303194         0.101395
 O        -3.316569        -1.179359         0.546337
 C        -2.888689        -2.386828         1.129956
 C        -2.743047        -3.215911        -0.158070
 O        -2.414604        -4.382061        -0.178189
 H         2.231892        -0.317380        -0.214698
 H         1.462205        -1.696607        -1.054236
 H         1.346541         0.039073        -1.575791
 H        -2.481984         0.187268         1.887610
 H        -4.146349         1.442321         0.276075
 H        -2.591482         2.219326         0.434234
 H        -2.943264         1.144288        -1.026644
 H        -1.955103        -2.417202         1.761544
 H        -3.677590        -2.722411         1.900271
 H        -3.006053        -2.648603        -1.065632
