19
Iteration:  3759
 C         1.406485        -0.685203        -0.454104
 C         0.007577        -0.658825        -0.002170
 C        -1.156720        -0.673849         0.406301
 C        -2.462139        -0.222474         1.050670
 C        -2.645612         1.258861         0.710184
 O        -3.675540        -0.884897         0.480170
 C        -3.597228        -2.336995         0.521024
 C        -2.618648        -2.898288        -0.520577
 O        -1.947078        -3.920889        -0.412724
 H         1.408772        -1.022985        -1.541566
 H         2.059270         0.155911        -0.256475
 H         2.015077        -1.553237        -0.080663
 H        -2.533353        -0.535041         2.097812
 H        -1.799240         1.767979         0.247220
 H        -3.408348         1.253848        -0.141717
 H        -3.041814         1.789641         1.559689
 H        -3.544646        -2.645237         1.561944
 H        -4.608740        -2.628931         0.316445
 H        -2.634714        -2.284717        -1.466698
