19
Iteration:   570
 C         1.593153         0.656876         0.016229
 C         0.267749         0.257488        -0.158026
 C        -0.929016         0.071710        -0.177761
 C        -2.321633        -0.125107         0.177615
 C        -3.026692         0.765674        -0.773661
 O        -2.980482        -1.430430         0.046695
 C        -2.644672        -2.407193         1.087683
 C        -3.421457        -3.731058         0.619617
 O        -3.154085        -4.875324         0.765145
 H         1.894638         0.730827         1.120196
 H         2.373019         0.086573        -0.577035
 H         1.651937         1.735884        -0.293718
 H        -2.305904         0.164919         1.223139
 H        -4.101613         0.588208        -0.834487
 H        -2.828822         1.820226        -0.466417
 H        -2.579413         0.743131        -1.840840
 H        -1.578823        -2.597210         1.305893
 H        -3.240393        -1.959187         1.934509
 H        -4.201611        -3.525463        -0.132874
