19
Iteration:  4964charge 0 multiplicity 1
 C         1.825791        -0.109566         0.596835
 C         0.379375        -0.119622         0.607929
 C        -0.811083        -0.407349         0.784219
 C        -2.257894        -0.431022         1.009340
 C        -2.829119         0.849489         1.403529
 O        -2.936100        -1.054861        -0.144843
 C        -2.536640        -2.335973        -0.186726
 C        -3.334700        -3.155705        -1.229643
 O        -4.071048        -4.104664        -0.983503
 H         2.277426         0.391372         1.465901
 H         2.303006        -1.126261         0.532032
 H         2.204096         0.368454        -0.338188
 H        -2.525421        -1.137878         1.880827
 H        -2.532315         1.087688         2.445695
 H        -2.528177         1.664162         0.648442
 H        -3.963322         0.679076         1.348933
 H        -1.410630        -2.359047        -0.447492
 H        -2.518769        -2.886907         0.816794
 H        -3.314600        -2.810168        -2.258674
