19
Iteration:  1188charge 0 multiplicity 1
 C         1.437412        -0.257634         0.127862
 C         0.067932         0.178159        -0.021035
 C        -1.123979         0.352763         0.310423
 C        -2.567151         0.115113         0.422505
 C        -3.339032         0.859133        -0.597187
 O        -3.025499        -1.242428         0.143934
 C        -2.167914        -2.370306         0.315536
 C        -3.143562        -3.554529         0.382849
 O        -2.798980        -4.707335         0.640719
 H         2.120890         0.515841        -0.267942
 H         1.712984        -0.556239         1.123539
 H         1.592253        -1.100213        -0.561597
 H        -2.929470         0.362243         1.464099
 H        -4.412140         0.584572        -0.394734
 H        -3.286724         1.949289        -0.462535
 H        -3.035242         0.497528        -1.579034
 H        -1.616511        -2.376990        -0.614312
 H        -1.552387        -2.394036         1.218383
 H        -4.217761        -3.370475         0.165492
