19
Iteration:   706charge 0 multiplicity 1
 C         1.516833         0.181761        -0.266109
 C         0.097003         0.263542        -0.004704
 C        -1.075630         0.209362         0.330476
 C        -2.446391         0.029669         0.413984
 C        -3.082681         0.839060        -0.811020
 O        -2.978374        -1.236484         0.079485
 C        -2.677248        -2.389521         0.916573
 C        -3.087231        -3.755750         0.267395
 O        -2.951152        -4.824615         0.806239
 H         1.708108         0.011726        -1.301975
 H         2.098464         0.986708         0.137603
 H         1.898332        -0.729878         0.230715
 H        -2.833289         0.307403         1.396837
 H        -4.115083         1.139866        -0.495570
 H        -2.428743         1.723845        -0.886782
 H        -3.089218         0.188843        -1.637636
 H        -1.511018        -2.427424         1.024615
 H        -3.147029        -2.382114         1.909532
 H        -3.501782        -3.600631        -0.765951
