19
Iteration:  3318
 C         1.092315        -1.024439        -0.573847
 C        -0.074777        -0.597472         0.061987
 C        -1.187685        -0.234219         0.394565
 C        -2.530242         0.040494         0.962362
 C        -2.911771         1.404128         0.332628
 O        -3.585096        -1.000311         0.549549
 C        -3.251533        -2.354759         0.839569
 C        -2.403845        -3.005510        -0.407812
 O        -1.889217        -4.126755        -0.406175
 H         1.452317        -1.969102        -0.064982
 H         0.957039        -1.125721        -1.650179
 H         1.917070        -0.348109        -0.400431
 H        -2.613652        -0.044339         2.059843
 H        -2.065889         1.826572        -0.213969
 H        -3.789284         1.237525        -0.310528
 H        -3.160767         2.030705         1.167287
 H        -2.370101        -2.452881         1.575861
 H        -4.089307        -2.901114         1.270244
 H        -2.281094        -2.159126        -1.128456
