19
Iteration:  1208
 C         1.395976        -0.134169         0.176193
 C         0.017499         0.176531        -0.073195
 C        -1.150956         0.178458         0.083491
 C        -2.524696         0.062599         0.469489
 C        -3.260833         1.001838        -0.550931
 O        -3.017222        -1.287983         0.241146
 C        -2.169066        -2.388161         0.268762
 C        -3.129895        -3.570600         0.370097
 O        -2.844978        -4.732191         0.672248
 H         2.088448         0.416693        -0.428599
 H         1.498420         0.138337         1.170731
 H         1.557470        -1.212041         0.139542
 H        -2.711527         0.380515         1.515040
 H        -4.243660         0.683814        -0.860132
 H        -3.511362         1.969634        -0.108929
 H        -2.568111         1.192276        -1.419655
 H        -1.636037        -2.668053        -0.648692
 H        -1.489895        -2.340577         1.118484
 H        -4.179768        -3.376661        -0.081965
