19
Iteration:  3088
 C         1.137866        -0.965035        -0.790361
 C        -0.078455        -0.542094        -0.193711
 C        -1.158773        -0.559888         0.352536
 C        -2.511245        -0.120193         0.889304
 C        -2.859703         1.259637         0.446828
 O        -3.564010        -0.929597         0.557762
 C        -3.520027        -2.275943         0.753298
 C        -2.453862        -2.943674        -0.212907
 O        -1.705721        -3.869272        -0.027682
 H         2.138531        -0.944383        -0.220458
 H         1.012697        -1.949127        -1.264282
 H         1.386709        -0.399571        -1.706838
 H        -2.485021        -0.138270         2.020454
 H        -3.912084         1.362952         0.097164
 H        -2.657960         1.923832         1.259433
 H        -2.268554         1.595619        -0.449702
 H        -3.377942        -2.558464         1.803788
 H        -4.417820        -2.798195         0.330798
 H        -2.604506        -2.736120        -1.360968
