19
Iteration:  1065
 C         1.582577        -0.053484        -0.048278
 C         0.198335         0.060511        -0.006763
 C        -1.034342         0.059048        -0.102794
 C        -2.522760        -0.012546         0.352933
 C        -3.195287         1.031287        -0.549663
 O        -3.141347        -1.228156         0.024716
 C        -3.038563        -2.337544         1.030968
 C        -3.155165        -3.709014         0.355232
 O        -2.375962        -4.579475         0.569775
 H         1.912071        -0.952631         0.494849
 H         1.933165        -0.140332        -1.059324
 H         2.059443         0.861430         0.412677
 H        -2.597131         0.133199         1.442408
 H        -4.246546         1.206997        -0.251342
 H        -2.604086         1.977262        -0.548760
 H        -3.061325         0.585661        -1.613070
 H        -2.049757        -2.383499         1.414131
 H        -3.767260        -2.102186         1.845035
 H        -4.159168        -3.941090        -0.107290
