19
Iteration:  1182charge 0 multiplicity 1
 C         1.504842        -0.291532         0.072136
 C         0.064118         0.177562         0.042916
 C        -1.101675         0.358322         0.339607
 C        -2.584753         0.135648         0.447832
 C        -3.405303         0.858480        -0.627131
 O        -3.021311        -1.280613         0.142228
 C        -2.162236        -2.309850         0.280120
 C        -3.168035        -3.582244         0.412408
 O        -2.783143        -4.694142         0.627701
 H         2.148129         0.588202        -0.149283
 H         1.709264        -0.711488         1.130432
 H         1.668691        -1.098096        -0.657467
 H        -3.046121         0.447237         1.377838
 H        -4.466593         0.823527        -0.338113
 H        -3.305572         1.966494        -0.670259
 H        -3.173403         0.488066        -1.626778
 H        -1.340677        -2.563651        -0.506634
 H        -1.688334        -2.321545         1.305003
 H        -4.247796        -3.392790         0.139379
