19
Iteration:  2961
 C         1.182874        -1.080672        -0.759608
 C        -0.141503        -0.488671        -0.326806
 C        -1.194727        -0.166737         0.253679
 C        -2.446343         0.026765         0.975332
 C        -3.150383         1.332103         0.539755
 O        -3.432016        -0.826043         0.487068
 C        -3.321068        -2.265062         0.682171
 C        -2.252509        -3.115205        -0.163152
 O        -1.990698        -4.283560        -0.043407
 H         1.294119        -1.740956        -1.576830
 H         1.901306        -0.312173        -1.122784
 H         1.766643        -1.487293         0.181175
 H        -2.342091        -0.019079         2.077897
 H        -4.156835         1.369870         0.980415
 H        -2.661667         2.238727         0.719857
 H        -3.193930         1.267306        -0.600087
 H        -2.891194        -2.355708         1.702373
 H        -4.268947        -2.752759         0.813707
 H        -1.641394        -2.561104        -0.774859
