19
Iteration:  3100charge 0 multiplicity 1
 C         1.190737        -1.015264        -0.822277
 C        -0.040591        -0.494013        -0.163163
 C        -1.188226        -0.654903         0.287977
 C        -2.440486        -0.147517         0.854941
 C        -2.902658         1.352383         0.477246
 O        -3.685013        -0.928999         0.543277
 C        -3.409192        -2.349949         0.738358
 C        -2.470179        -2.894647        -0.247323
 O        -1.718488        -3.860748         0.011332
 H         2.035401        -0.786403        -0.102488
 H         1.064989        -2.088967        -0.750944
 H         1.322832        -0.534473        -1.823871
 H        -2.255534        -0.145983         1.970758
 H        -4.003028         1.210028         0.353772
 H        -2.780067         2.033504         1.279052
 H        -2.355190         1.787027        -0.447603
 H        -3.226759        -2.628330         1.777636
 H        -4.479835        -2.703683         0.500398
 H        -2.573256        -2.253361        -1.215948
