19
Iteration:  3580charge 0 multiplicity 1
 C         1.058132        -0.919147        -0.677526
 C        -0.047421        -0.688920         0.248392
 C        -1.025511        -0.033133         0.683743
 C        -2.592674         0.080834         1.006051
 C        -3.016363         1.448412         0.743828
 O        -3.361438        -0.857905         0.234604
 C        -3.055899        -2.315290         0.442321
 C        -2.260137        -3.192308        -0.415071
 O        -2.340841        -4.423278        -0.372726
 H         1.511133        -1.978700        -0.639265
 H         0.581349        -1.004626        -1.741463
 H         1.729034        -0.113081        -0.928507
 H        -2.771792        -0.291152         2.064291
 H        -2.224410         2.136012         1.145568
 H        -3.142300         1.666402        -0.361479
 H        -3.900755         1.775086         1.317221
 H        -2.504659        -2.242501         1.358358
 H        -4.046134        -2.639384         0.594305
 H        -1.561036        -2.581228        -1.068015
