19
Iteration:  2828
 C         1.307641        -0.669453        -0.769382
 C         0.026694        -0.394680        -0.067388
 C        -1.074220        -0.002982         0.329620
 C        -2.427901         0.100610         0.931083
 C        -3.150414         1.223854         0.158320
 O        -3.339358        -0.952213         0.527222
 C        -2.981223        -2.287684         1.007957
 C        -2.716618        -3.352196        -0.148102
 O        -2.318761        -4.507234        -0.200344
 H         2.105514        -0.123884        -0.245769
 H         1.384011        -1.711059        -0.548631
 H         1.258064        -0.357034        -1.876084
 H        -2.488638         0.192879         2.032486
 H        -4.190393         1.328396         0.462934
 H        -2.502481         2.119514         0.271227
 H        -3.169837         0.906573        -0.851390
 H        -2.007233        -2.252140         1.538067
 H        -3.665498        -2.650650         1.728822
 H        -2.846409        -2.720459        -1.125708
