19
Iteration:  4574charge 0 multiplicity 1
 C         1.452729        -0.627033         0.014134
 C         0.151348        -0.554776         0.664368
 C        -0.983319        -0.208141         0.974459
 C        -2.461461        -0.157179         1.207078
 C        -2.942811         1.303060         0.959686
 O        -2.967727        -1.021463         0.140388
 C        -2.559750        -2.420055         0.262067
 C        -2.912313        -3.058305        -1.051429
 O        -3.420234        -4.163113        -1.123859
 H         1.291759        -0.868435        -1.055794
 H         1.986443         0.329298        -0.109526
 H         2.188549        -1.357210         0.431126
 H        -2.701467        -0.628026         2.213240
 H        -2.462829         2.204679         1.392420
 H        -2.784121         1.448233        -0.085008
 H        -4.050842         1.471701         1.019723
 H        -1.523654        -2.420550         0.435030
 H        -3.184599        -3.058446         0.913214
 H        -2.358843        -2.701995        -1.894585
