19
Iteration:  2951charge 0 multiplicity 1
 C         1.196284        -1.077862        -0.699534
 C        -0.131603        -0.527094        -0.373292
 C        -1.174933        -0.098161         0.179279
 C        -2.423561         0.067012         0.904747
 C        -3.176240         1.255051         0.552589
 O        -3.453085        -0.849350         0.485560
 C        -3.270245        -2.198808         0.760134
 C        -2.203351        -3.086446        -0.155606
 O        -2.057074        -4.319490        -0.061123
 H         1.173040        -1.564230        -1.650791
 H         1.747437        -0.093884        -0.667488
 H         1.514456        -1.839397         0.129211
 H        -2.237366         0.042366         2.010921
 H        -4.176996         1.109316         0.944840
 H        -2.739905         2.020224         1.111473
 H        -3.174032         1.454898        -0.541635
 H        -2.888740        -2.282431         1.816634
 H        -4.170260        -2.788316         0.731453
 H        -1.521950        -2.557818        -0.784719
