19
Iteration:  2684
 C         1.555795        -0.260882        -0.556240
 C         0.195652        -0.199998        -0.116713
 C        -1.050367        -0.118466         0.089231
 C        -2.454050        -0.072068         0.681757
 C        -3.161512         0.988248        -0.137242
 O        -3.369437        -1.230615         0.800044
 C        -2.743151        -2.421631         1.178575
 C        -2.763170        -3.148737        -0.108962
 O        -2.858647        -4.372921        -0.142830
 H         1.449085        -0.936614        -1.467535
 H         1.959523         0.734329        -0.800474
 H         2.155787        -0.864597         0.195557
 H        -2.209801         0.235153         1.734573
 H        -4.036129         1.410524         0.336782
 H        -2.437438         1.798884        -0.404734
 H        -3.425564         0.480260        -1.083157
 H        -1.667972        -2.168167         1.603617
 H        -3.196502        -3.000494         2.008642
 H        -2.759532        -2.445445        -1.074971
