19
Iteration:  2844
 C         1.226064        -0.753879        -0.701399
 C        -0.029811        -0.395625        -0.163160
 C        -1.035055        -0.041965         0.458695
 C        -2.380017         0.162677         0.835808
 C        -3.218965         1.287449         0.249397
 O        -3.300216        -0.958141         0.561044
 C        -2.943024        -2.288957         0.864439
 C        -2.660646        -3.347597        -0.287173
 O        -2.295952        -4.480277        -0.074030
 H         1.929883         0.065187        -0.504655
 H         1.747751        -1.717684        -0.457832
 H         1.110590        -0.880545        -1.738476
 H        -2.294761         0.352074         1.922416
 H        -4.096011         1.317942         0.907969
 H        -2.765827         2.270282         0.146222
 H        -3.528984         1.016894        -0.803469
 H        -2.086362        -2.296400         1.580885
 H        -3.914599        -2.759795         1.280369
 H        -2.905121        -3.024820        -1.278929
