19
Iteration:  3977charge 0 multiplicity 1
 C         1.100743        -1.410883        -0.412139
 C        -0.142638        -0.852592         0.159336
 C        -1.231740        -0.407254         0.480218
 C        -2.554960        -0.018790         1.026811
 C        -2.902906         1.434524         0.911107
 O        -3.626354        -0.948556         0.495436
 C        -3.200276        -2.239286         0.513202
 C        -2.402192        -2.733459        -0.691349
 O        -1.771339        -3.767142        -0.679901
 H         1.634450        -0.801956        -1.183981
 H         1.894628        -1.801967         0.285455
 H         0.791374        -2.253494        -1.013998
 H        -2.448680        -0.161912         2.129475
 H        -2.035905         2.155801         1.004272
 H        -3.280989         1.563928        -0.143778
 H        -3.591894         1.891352         1.642301
 H        -2.740878        -2.751242         1.402270
 H        -4.121159        -2.852390         0.428361
 H        -2.569236        -1.990205        -1.542870
