19
Iteration:  2219charge 0 multiplicity 1
 C         0.964893        -1.369862        -0.687948
 C        -0.280487        -0.671011        -0.347653
 C        -1.152093        -0.257190         0.328431
 C        -2.545253         0.031720         0.700325
 C        -3.307653         1.252677         0.425576
 O        -3.518170        -0.914787         0.094544
 C        -3.279536        -2.239547         0.416638
 C        -2.072598        -3.013891        -0.067337
 O        -1.510595        -3.705848         0.776553
 H         1.364015        -1.974554         0.126373
 H         0.811309        -1.946363        -1.650726
 H         1.765384        -0.606454        -1.054877
 H        -2.569582        -0.168128         1.783420
 H        -3.997433         1.365318         1.321443
 H        -2.718297         2.127433         0.256960
 H        -3.929843         1.163153        -0.562373
 H        -3.096333        -2.406251         1.472628
 H        -4.229823        -2.626373         0.108047
 H        -1.687141        -2.969768        -1.021171
