19
Iteration:  4418
 C         1.644870        -0.420487         0.191316
 C         0.241951        -0.551344         0.408601
 C        -0.943756        -0.363945         0.526940
 C        -2.358910        -0.252397         1.082133
 C        -2.631492         1.222472         1.034530
 O        -3.282744        -0.956054         0.192091
 C        -3.328366        -2.369174         0.262553
 C        -3.161653        -3.041259        -0.947711
 O        -2.896099        -4.237314        -0.989135
 H         2.171495        -0.583381         1.158886
 H         2.089626        -0.930547        -0.631199
 H         1.829858         0.665421         0.169631
 H        -2.159132        -0.636832         2.025868
 H        -1.720862         1.753809         1.341826
 H        -2.705561         1.547287         0.005244
 H        -3.356200         1.512083         1.735461
 H        -2.505834        -2.812648         1.016645
 H        -4.141683        -2.944626         0.898047
 H        -3.063048        -2.371798        -1.795384
