19
Iteration:  3757
 C         1.395852        -0.684270        -0.447331
 C         0.015722        -0.654372        -0.017729
 C        -1.154900        -0.694640         0.403120
 C        -2.459119        -0.223716         1.042608
 C        -2.648056         1.243924         0.704999
 O        -3.669071        -0.882184         0.477455
 C        -3.595884        -2.318686         0.535864
 C        -2.636706        -2.908368        -0.516252
 O        -1.938691        -3.921219        -0.416237
 H         1.422287        -0.985604        -1.517300
 H         2.065416         0.108361        -0.165248
 H         1.971091        -1.485352        -0.117028
 H        -2.605986        -0.452678         2.080193
 H        -1.796190         1.748431         0.262787
 H        -3.428857         1.327328        -0.082502
 H        -3.066737         1.780720         1.596605
 H        -3.469133        -2.654300         1.607752
 H        -4.627086        -2.608517         0.230905
 H        -2.588081        -2.240662        -1.429241
