19
Iteration:  4480
 C         1.747700        -0.583530         0.206189
 C         0.315105        -0.383974         0.449695
 C        -0.889340        -0.098222         0.532340
 C        -2.346378        -0.195534         1.015935
 C        -2.831815         1.168141         1.070868
 O        -3.217223        -0.990626         0.256425
 C        -3.189870        -2.422944         0.368816
 C        -3.109615        -3.093046        -0.967557
 O        -3.088808        -4.289037        -1.107643
 H         2.208094         0.353639         0.573059
 H         2.340961        -1.407869         0.715222
 H         1.866114        -0.631291        -0.882472
 H        -2.302832        -0.631153         2.115285
 H        -2.172072         1.865538         1.635285
 H        -2.836340         1.601865        -0.038695
 H        -3.929106         1.223228         1.377048
 H        -2.379326        -2.870027         0.915108
 H        -4.185464        -2.531531         0.745530
 H        -2.930610        -2.394129        -1.775626
