19
Iteration:   802
 C         1.504377        -0.180002         0.085512
 C         0.054679        -0.218002        -0.239611
 C        -1.096386         0.142331        -0.055974
 C        -2.588954         0.053731         0.246447
 C        -3.572475         0.948156        -0.582900
 O        -3.053752        -1.302017         0.130221
 C        -2.313058        -2.256805         1.004211
 C        -2.522499        -3.525441         0.234961
 O        -3.068452        -4.479012         0.713930
 H         1.689186        -1.010294         0.837507
 H         2.256443        -0.201294        -0.782225
 H         1.758451         0.789261         0.562801
 H        -2.615946         0.512112         1.279458
 H        -4.560372         0.505034        -0.247666
 H        -3.449233         1.960770        -0.140051
 H        -3.465332         0.905653        -1.617325
 H        -1.201542        -2.100059         0.956816
 H        -2.765642        -2.269441         2.040788
 H        -2.142623        -3.383937        -0.784341
