19
Iteration:  2924charge 0 multiplicity 1
 C         1.251541        -1.083328        -0.690264
 C        -0.097543        -0.493970        -0.255781
 C        -1.215312        -0.117031         0.073384
 C        -2.552042         0.083282         0.774763
 C        -3.214155         1.536200         0.610340
 O        -3.361410        -1.084029         0.381588
 C        -3.085434        -2.363331         0.917505
 C        -2.231674        -3.062075        -0.157463
 O        -2.195946        -4.267702        -0.042701
 H         1.347209        -1.007019        -1.813417
 H         1.878417        -0.406010        -0.154770
 H         1.362574        -2.085335        -0.377899
 H        -2.319840         0.067316         1.845045
 H        -4.288138         1.507457         0.900550
 H        -2.562559         2.110747         1.396689
 H        -3.177750         1.942353        -0.392772
 H        -2.551402        -2.366679         1.873316
 H        -4.042680        -2.989130         0.883988
 H        -1.836049        -2.348605        -0.944124
