19
Iteration:   533charge 0 multiplicity 1
 C         1.651792         0.623266         0.016078
 C         0.244806         0.237168         0.020241
 C        -0.895310        -0.165414         0.080680
 C        -2.334463        -0.078481         0.153792
 C        -3.341948         0.709166        -0.821265
 O        -2.913367        -1.431078        -0.043392
 C        -2.386894        -2.410030         0.777566
 C        -3.341172        -3.642140         0.451523
 O        -3.261493        -4.690766         0.999789
 H         2.236921        -0.055588         0.640322
 H         2.104372         0.663077        -0.986559
 H         1.649129         1.754631         0.385711
 H        -2.648793         0.308927         1.138094
 H        -4.247398         0.971407        -0.168393
 H        -2.855734         1.656612        -1.138199
 H        -3.553775         0.119316        -1.677797
 H        -1.325071        -2.507642         0.759289
 H        -2.575164        -2.204367         1.893949
 H        -4.007776        -3.277509        -0.355190
