19
Iteration:  3523
 C         1.146387        -0.931339        -0.604674
 C        -0.071863        -0.396112        -0.021353
 C        -1.052491        -0.155739         0.657050
 C        -2.488461        -0.030608         0.999516
 C        -2.931288         1.317846         0.641647
 O        -3.370309        -0.986449         0.272629
 C        -3.221586        -2.331556         0.727713
 C        -2.398273        -3.060588        -0.396266
 O        -2.274193        -4.284517        -0.442700
 H         0.833856        -1.682689        -1.324283
 H         1.596197        -0.061473        -1.179005
 H         1.809133        -1.353425         0.169165
 H        -2.686452        -0.208015         2.101446
 H        -2.158748         2.091926         0.736293
 H        -3.007410         1.282759        -0.499118
 H        -3.907098         1.636668         0.954235
 H        -2.713571        -2.507057         1.662939
 H        -4.211272        -2.772454         0.814440
 H        -1.875428        -2.236426        -0.853069
