19
Iteration:  2060charge 0 multiplicity 1
 C         1.096232        -1.115572        -0.557709
 C        -0.134367        -0.533200         0.014236
 C        -1.262650        -0.260970         0.391177
 C        -2.662536         0.088531         0.670419
 C        -3.206621         1.237609        -0.295944
 O        -3.584228        -1.037210         0.488047
 C        -3.094129        -2.240882         1.036775
 C        -2.205080        -2.984397        -0.009706
 O        -1.656144        -4.038071         0.073195
 H         1.324544        -0.635364        -1.562121
 H         1.889642        -1.075945         0.164249
 H         0.903832        -2.124911        -0.884277
 H        -2.730125         0.425567         1.714436
 H        -3.911861         1.895482         0.155094
 H        -2.383879         1.820861        -0.616996
 H        -3.622889         0.761535        -1.196561
 H        -2.517621        -2.217060         1.957245
 H        -3.985146        -2.774280         1.284168
 H        -2.321151        -2.361346        -1.051293
