19
Iteration:  1432
 C         1.646094         0.540154        -0.240605
 C         0.171884         0.308391        -0.226813
 C        -0.922000         0.184328         0.303332
 C        -2.383100        -0.065583         0.490522
 C        -3.179289         0.940721        -0.283659
 O        -2.546749        -1.488169         0.012048
 C        -2.648504        -2.498978         1.001114
 C        -3.261998        -3.761038         0.191586
 O        -3.495400        -4.905004         0.468349
 H         1.762082         1.549478         0.044575
 H         2.119836        -0.180055         0.471390
 H         2.023635         0.401877        -1.225091
 H        -2.593562        -0.046744         1.552966
 H        -3.823379         1.639370         0.291537
 H        -2.505578         1.604481        -0.865561
 H        -3.632357         0.375348        -1.204010
 H        -1.689834        -2.720360         1.559294
 H        -3.460902        -2.112046         1.664539
 H        -3.459703        -3.237704        -0.878292
