19
Iteration:  2063charge 0 multiplicity 1
 C         1.069533        -1.116754        -0.554640
 C        -0.124624        -0.539253         0.002662
 C        -1.283206        -0.232878         0.376408
 C        -2.656208         0.088296         0.639046
 C        -3.192723         1.233046        -0.278011
 O        -3.557678        -1.025855         0.500600
 C        -3.154096        -2.279937         1.036799
 C        -2.200758        -2.981910        -0.010922
 O        -1.624236        -4.040701         0.071040
 H         1.234934        -0.658497        -1.557786
 H         1.916586        -1.024765         0.184034
 H         0.815674        -2.186710        -0.801024
 H        -2.650758         0.480066         1.682363
 H        -3.933279         1.913744         0.163915
 H        -2.301212         1.934191        -0.563872
 H        -3.569610         0.790123        -1.173475
 H        -2.551220        -2.191893         1.974998
 H        -4.069083        -2.813923         1.278167
 H        -2.305567        -2.421892        -0.936705
