19
Iteration:  2714
 C         1.513194        -0.238343        -0.599222
 C         0.188759        -0.213948        -0.081679
 C        -1.044573        -0.356649         0.170304
 C        -2.419541         0.058497         0.722745
 C        -3.196178         1.074847        -0.132799
 O        -3.278697        -1.053110         0.848606
 C        -2.860882        -2.362968         1.207815
 C        -2.809247        -3.292776        -0.133342
 O        -2.742219        -4.500130        -0.260342
 H         1.877246        -1.244039        -1.004618
 H         1.664596         0.435546        -1.497148
 H         2.243506        -0.063669         0.177728
 H        -2.191305         0.513211         1.712662
 H        -4.058597         1.627270         0.320134
 H        -2.577861         1.797895        -0.646737
 H        -3.761297         0.466620        -0.936309
 H        -1.887827        -2.314678         1.618945
 H        -3.477217        -2.885890         1.964432
 H        -2.813702        -2.721312        -1.036967
