19
Iteration:  4891charge 0 multiplicity 1
 C         1.857445        -0.063090         0.365820
 C         0.430837        -0.159781         0.879973
 C        -0.770124        -0.364945         0.980845
 C        -2.192566        -0.432060         1.126739
 C        -3.071812         0.904426         1.051356
 O        -2.755437        -1.140823        -0.032034
 C        -2.556244        -2.558344        -0.026373
 C        -3.518401        -2.990081        -1.052462
 O        -3.998071        -4.078987        -1.259822
 H         2.240322        -1.095679         0.481100
 H         2.066360         0.058202        -0.722865
 H         2.653454         0.614192         0.715104
 H        -2.306060        -0.929785         2.071570
 H        -2.558634         1.634862         1.626404
 H        -3.060122         1.347028         0.004718
 H        -3.996883         0.675123         1.531459
 H        -1.580894        -2.965873        -0.339539
 H        -2.645091        -2.883493         0.997081
 H        -3.789665        -2.173785        -1.731715
