19
Iteration:  3363charge 0 multiplicity 1
 C         1.407608        -0.846958        -0.512599
 C         0.005210        -0.703828        -0.037969
 C        -1.087026        -0.434444         0.478554
 C        -2.425946        -0.038540         0.882677
 C        -3.129018         1.289725         0.342491
 O        -3.498700        -0.909348         0.627695
 C        -3.324988        -2.367000         0.814841
 C        -2.751875        -3.050116        -0.505206
 O        -1.928135        -3.913024        -0.340779
 H         2.250532        -0.904071         0.236046
 H         1.508905        -1.726549        -1.085044
 H         1.913461        -0.244097        -1.278604
 H        -2.217813         0.080443         1.980282
 H        -2.428189         1.720163        -0.383917
 H        -3.903832         0.715440        -0.258084
 H        -3.563707         1.810689         1.132177
 H        -2.564247        -2.496653         1.651657
 H        -4.295179        -2.737825         1.182239
 H        -3.038507        -2.438875        -1.402879
