19
Iteration:  2966
 C         1.176394        -1.046033        -0.763373
 C        -0.121906        -0.499800        -0.314100
 C        -1.182816        -0.194130         0.284643
 C        -2.449988         0.037195         0.984328
 C        -3.135012         1.382890         0.531687
 O        -3.451944        -0.867651         0.471021
 C        -3.299718        -2.299775         0.680652
 C        -2.273052        -3.093162        -0.162019
 O        -1.980887        -4.287837        -0.027007
 H         1.144739        -1.911576        -1.524717
 H         1.918582        -0.344137        -1.230823
 H         1.712294        -1.392446         0.075130
 H        -2.325179        -0.105302         2.086050
 H        -4.148524         1.457911         0.934696
 H        -2.550292         2.353320         0.627106
 H        -3.293831         1.219856        -0.514487
 H        -2.838815        -2.465759         1.685566
 H        -4.385568        -2.615431         0.677872
 H        -1.714382        -2.353460        -0.903086
