19
Iteration:   280charge 0 multiplicity 1
 C         1.591524         0.347275         0.080920
 C         0.181934         0.066499         0.049901
 C        -0.993269        -0.108345        -0.096175
 C        -2.441580        -0.165059         0.121341
 C        -3.325364         0.763149        -0.780350
 O        -2.927790        -1.445305        -0.298781
 C        -2.329643        -2.361468         0.477918
 C        -3.332099        -3.444030         0.728489
 O        -3.078718        -4.463128         1.350838
 H         2.149033         0.292196         0.962408
 H         2.067172        -0.303542        -0.654787
 H         1.641468         1.421426        -0.265438
 H        -2.728468        -0.187860         1.266261
 H        -4.234001         1.017471        -0.262353
 H        -2.696212         1.643672        -0.990670
 H        -3.453953         0.259533        -1.792686
 H        -1.419189        -2.861818         0.035076
 H        -1.951450        -1.920163         1.475624
 H        -4.346906        -3.228189         0.350092
