19
Iteration:  2498charge 0 multiplicity 1
 C         1.423845        -0.422253        -0.635249
 C         0.043445        -0.111415        -0.223800
 C        -1.067676         0.017950         0.215683
 C        -2.470415        -0.022028         0.570336
 C        -3.121194         1.269027         0.213072
 O        -3.266501        -1.185907         0.231020
 C        -2.898862        -2.309888         0.987513
 C        -2.521737        -3.432689         0.113873
 O        -2.785264        -4.599550         0.178599
 H         1.972933        -0.963255         0.204238
 H         1.425632        -1.207003        -1.406020
 H         2.096662         0.392635        -0.908235
 H        -2.475159        -0.002874         1.684600
 H        -4.185277         1.261705         0.567782
 H        -2.653639         2.066101         0.711133
 H        -3.070093         1.545552        -0.901097
 H        -2.119648        -1.945603         1.634030
 H        -3.693138        -2.643844         1.653578
 H        -1.980208        -3.020091        -0.776085
