19
Iteration:  2320charge 0 multiplicity 1
 C         1.214984        -0.610573        -0.704361
 C        -0.184249        -0.593397        -0.446649
 C        -1.200652        -0.428664         0.245622
 C        -2.505315        -0.067924         0.740830
 C        -2.931106         1.327187         0.338766
 O        -3.462153        -0.934331         0.088480
 C        -3.476424        -2.302561         0.561839
 C        -2.387175        -3.223133         0.094040
 O        -1.788337        -4.142863         0.723983
 H         1.596633         0.439178        -1.010209
 H         1.752821        -1.040294         0.175297
 H         1.473554        -1.349345        -1.499046
 H        -2.564573        -0.233118         1.843950
 H        -4.032824         1.355867         0.269067
 H        -2.639966         2.052533         1.197941
 H        -2.524165         1.718201        -0.620479
 H        -3.680627        -2.383480         1.620612
 H        -4.394703        -2.583870         0.042494
 H        -2.170826        -3.156131        -1.048635
