19
Iteration:  3402
 C         1.375730        -0.751729        -0.365180
 C        -0.051268        -0.578498        -0.028378
 C        -1.255926        -0.529474         0.112598
 C        -2.460274        -0.054055         0.827440
 C        -2.814365         1.327370         0.383848
 O        -3.554085        -1.022419         0.656595
 C        -3.264226        -2.347285         0.941028
 C        -2.770004        -3.092886        -0.336259
 O        -1.943064        -3.957062        -0.513783
 H         1.998918         0.050181         0.020804
 H         1.640173        -1.760363         0.126993
 H         1.283720        -0.806960        -1.462875
 H        -2.285837        -0.124210         1.912252
 H        -1.895331         1.940588         0.460414
 H        -3.172068         1.488059        -0.620920
 H        -3.579984         1.888494         1.032428
 H        -2.581688        -2.457410         1.771778
 H        -4.215439        -2.846702         1.224264
 H        -3.197838        -2.583975        -1.265504
