19
Iteration:    39
 C         1.608050         0.238370        -0.168339
 C         0.201757        -0.106714        -0.176504
 C        -0.992660        -0.000947         0.015427
 C        -2.413135        -0.036973        -0.029093
 C        -3.302895         0.722590        -1.111101
 O        -2.670501        -1.448781        -0.066943
 C        -2.618146        -2.147468         1.147802
 C        -3.416338        -3.495588         0.774525
 O        -3.015791        -4.547115         1.209726
 H         1.761580         0.926389         0.682670
 H         2.189067        -0.672806         0.080526
 H         1.879278         0.717903        -1.127025
 H        -2.750795         0.333119         1.026458
 H        -3.970279        -0.010230        -1.608464
 H        -3.983487         1.454207        -0.591444
 H        -2.630944         1.184975        -1.870398
 H        -1.655042        -2.480531         1.580379
 H        -3.164555        -1.555583         1.954880
 H        -4.335696        -3.273043         0.096903
