19
Iteration:  4406
 C         1.660156        -0.379132         0.186081
 C         0.223077        -0.593982         0.481960
 C        -0.988011        -0.436233         0.515573
 C        -2.299770        -0.226280         1.000183
 C        -2.598583         1.333141         1.051540
 O        -3.305713        -0.953958         0.271458
 C        -3.332511        -2.385418         0.360586
 C        -3.117025        -3.087998        -1.030575
 O        -2.875172        -4.268947        -1.011949
 H         2.341569        -0.954961         0.822473
 H         1.890399        -0.673842        -0.834016
 H         1.832194         0.690436         0.195418
 H        -2.443250        -0.573119         1.977764
 H        -1.779679         1.798134         1.598994
 H        -2.708530         1.683129         0.012854
 H        -3.564818         1.568779         1.454522
 H        -2.491729        -2.763555         1.020072
 H        -4.421549        -2.630764         0.648748
 H        -3.192684        -2.479391        -1.952747
