19
Iteration:  3944charge 0 multiplicity 1
 C         1.011318        -1.474574        -0.448980
 C        -0.136721        -0.732661         0.077155
 C        -1.116743        -0.267667         0.612414
 C        -2.431410         0.068668         1.077719
 C        -3.076566         1.425189         0.990455
 O        -3.454773        -0.905446         0.317358
 C        -3.238021        -2.259199         0.537810
 C        -2.396232        -2.837023        -0.615588
 O        -1.820308        -3.909000        -0.725778
 H         1.888270        -0.816353        -0.469746
 H         1.109880        -2.430186         0.102988
 H         0.624099        -1.798609        -1.346272
 H        -2.435658        -0.461311         2.059652
 H        -2.329081         2.258794         0.879816
 H        -3.557805         1.335369        -0.034536
 H        -3.844810         1.570990         1.729072
 H        -2.783251        -2.314561         1.543085
 H        -4.282850        -2.589422         0.529047
 H        -2.202726        -1.982387        -1.335789
