19
Iteration:  3885charge 0 multiplicity 1
 C         0.973273        -1.391642        -0.562268
 C        -0.115533        -0.627197         0.088845
 C        -1.162112        -0.232389         0.575444
 C        -2.472737         0.080766         1.034730
 C        -3.085160         1.499994         1.077900
 O        -3.472149        -0.781320         0.379810
 C        -3.095088        -2.193391         0.446579
 C        -2.292826        -3.006874        -0.667684
 O        -1.951242        -4.179956        -0.600470
 H         1.698565        -1.805892         0.138890
 H         0.608142        -2.321278        -0.994126
 H         1.664373        -0.792775        -1.191715
 H        -2.563428        -0.329186         2.017158
 H        -2.870833         2.063033         1.956507
 H        -2.761213         2.016149         0.192830
 H        -4.189694         1.409798         0.973249
 H        -2.729421        -2.477180         1.393688
 H        -4.037619        -2.704440         0.533779
 H        -1.877652        -2.416289        -1.514007
