19
Iteration:  3748
 C         1.368482        -0.697477        -0.431930
 C        -0.023542        -0.637634        -0.043867
 C        -1.129169        -0.762976         0.410763
 C        -2.448339        -0.257172         0.948883
 C        -2.687054         1.226574         0.702209
 O        -3.612783        -0.879886         0.452688
 C        -3.612996        -2.253094         0.594948
 C        -2.661791        -2.942058        -0.477428
 O        -1.936541        -3.901995        -0.431027
 H         1.549823        -0.465159        -1.559484
 H         1.826630         0.153138         0.063533
 H         1.751223        -1.665754         0.040162
 H        -2.421341        -0.236643         2.054399
 H        -1.721909         1.670279         0.464999
 H        -3.553743         1.503181         0.032512
 H        -2.919616         1.703414         1.654217
 H        -3.216310        -2.689768         1.487575
 H        -4.515659        -2.584965         0.173231
 H        -2.503497        -2.194147        -1.296036
