19
Iteration:  2890charge 0 multiplicity 1
 C         1.076652        -0.914154        -0.678582
 C        -0.075808        -0.445635        -0.134975
 C        -1.195969        -0.075381         0.212058
 C        -2.437526         0.089662         0.781638
 C        -3.085390         1.352136         0.511111
 O        -3.490956        -0.979087         0.315116
 C        -2.894561        -2.213275         0.885925
 C        -2.401249        -3.219384        -0.167343
 O        -2.196294        -4.438203        -0.064747
 H         1.656296        -0.169558        -1.302099
 H         1.813460        -1.050325         0.126267
 H         1.107554        -1.893772        -1.051663
 H        -2.346188        -0.105602         1.865440
 H        -3.976231         1.329988         1.173463
 H        -2.483588         2.330344         0.754703
 H        -3.335102         1.501526        -0.529764
 H        -2.010072        -2.005284         1.499867
 H        -3.720112        -2.532247         1.611249
 H        -2.392631        -2.823764        -1.162446
