19
Iteration:  3251
 C         1.002597        -1.279566        -0.644628
 C        -0.238767        -0.731137        -0.027237
 C        -1.089198         0.019568         0.489064
 C        -2.487345         0.095745         0.966977
 C        -3.222262         1.402717         0.507737
 O        -3.393157        -0.895881         0.366651
 C        -3.177814        -2.243868         0.766315
 C        -2.213674        -3.033440        -0.342736
 O        -1.872672        -4.200272        -0.310505
 H         0.693294        -1.918931        -1.543076
 H         1.653280        -0.415914        -0.948158
 H         1.426306        -1.955492         0.056425
 H        -2.436432         0.035712         2.093314
 H        -2.599355         2.292327         0.490143
 H        -3.608580         1.298703        -0.463188
 H        -4.028927         1.678981         1.246413
 H        -2.627943        -2.236395         1.796783
 H        -4.099550        -2.819619         0.938875
 H        -1.831333        -2.377056        -1.241779
