19
Iteration:  2529charge 0 multiplicity 1
 C         1.373173        -0.467975        -0.615600
 C        -0.085844        -0.245572        -0.309846
 C        -1.128509         0.098584         0.323188
 C        -2.458388         0.273588         0.847775
 C        -3.257063         1.301947         0.029446
 O        -2.952220        -1.109127         0.370023
 C        -2.806276        -2.399527         0.948043
 C        -2.443271        -3.524362         0.015423
 O        -2.928954        -4.685229         0.084039
 H         1.849558        -0.282592         0.429254
 H         1.625760        -1.536064        -0.818757
 H         1.731712         0.118457        -1.432985
 H        -2.510571         0.430831         1.925790
 H        -4.314255         1.421818         0.412849
 H        -2.644049         2.192183        -0.007214
 H        -3.405942         0.796701        -0.965408
 H        -1.935075        -2.211330         1.689727
 H        -3.811217        -2.666988         1.373989
 H        -1.668946        -3.210155        -0.813066
