19
Iteration:  2595
 C         1.277482        -0.537176        -0.584601
 C         0.084035        -0.058026         0.012787
 C        -1.118689        -0.191146         0.289200
 C        -2.470068         0.052571         0.595822
 C        -3.244751         1.101930        -0.083381
 O        -3.156154        -1.220663         0.515264
 C        -2.489990        -2.288414         1.113246
 C        -2.509749        -3.304977        -0.036152
 O        -2.998392        -4.386020        -0.061827
 H         1.906168         0.303738        -1.069261
 H         2.113214        -0.839769         0.052222
 H         1.046219        -1.205298        -1.395875
 H        -2.585499         0.329102         1.660422
 H        -4.291920         0.976126         0.292040
 H        -2.900678         2.047524         0.225686
 H        -3.392567         1.164948        -1.212962
 H        -1.346899        -2.175804         1.351566
 H        -3.099753        -2.604834         2.007667
 H        -2.177287        -2.800795        -0.923559
