19
Iteration:  2633charge 0 multiplicity 1
 C         1.501513        -0.374836        -0.544458
 C        -0.027761        -0.420924        -0.257992
 C        -1.071837         0.022359         0.200232
 C        -2.508918         0.156687         0.831553
 C        -3.203263         1.066759        -0.150508
 O        -3.266559        -1.077514         0.810693
 C        -2.584696        -2.325834         0.994025
 C        -2.515637        -3.406286        -0.115731
 O        -3.005752        -4.503258        -0.124983
 H         1.636024         0.129048        -1.442554
 H         1.775153         0.163509         0.346658
 H         2.038224        -1.343262        -0.490090
 H        -2.458608         0.575691         1.840194
 H        -4.242204         0.816961        -0.060680
 H        -3.048349         2.145755         0.190924
 H        -2.822516         0.921136        -1.109476
 H        -1.616872        -2.052009         1.278018
 H        -3.006688        -2.844042         1.849345
 H        -1.842300        -3.051868        -0.933063
