19
Iteration:  2357
 C         1.316624        -0.345940        -0.798889
 C         0.081568        -0.652840        -0.132749
 C        -1.029826        -0.417435         0.186983
 C        -2.422944        -0.130957         0.638852
 C        -2.980980         1.260805         0.257691
 O        -3.484506        -1.017949         0.154122
 C        -3.579238        -2.354772         0.667088
 C        -2.515161        -3.178335         0.057032
 O        -2.041804        -4.182906         0.639801
 H         1.178833         0.237304        -1.708723
 H         1.944920         0.287660        -0.196673
 H         1.840870        -1.258215        -1.014497
 H        -2.481672        -0.112835         1.727269
 H        -3.889014         1.322383         0.872206
 H        -2.261081         1.999005         0.625579
 H        -3.171778         1.420990        -0.796780
 H        -3.402389        -2.430997         1.759853
 H        -4.543273        -2.831025         0.353302
 H        -2.073159        -2.800214        -0.903453
