19
Iteration:  4535
 C         1.621221        -0.619487         0.057764
 C         0.217624        -0.396868         0.428051
 C        -0.914844        -0.353591         0.882194
 C        -2.398742        -0.169496         1.116997
 C        -2.997754         1.321369         1.036220
 O        -3.078034        -0.989863         0.135375
 C        -2.849477        -2.354134         0.386767
 C        -2.900953        -3.097651        -0.997260
 O        -3.305251        -4.228716        -1.146715
 H         2.002063        -0.101111        -0.833773
 H         2.161395        -0.315065         0.995469
 H         1.723052        -1.699401         0.005535
 H        -2.700300        -0.628129         2.091041
 H        -2.692269         2.021575         1.803247
 H        -2.576368         1.634123         0.013256
 H        -4.059297         1.111736         0.939394
 H        -1.802267        -2.629040         0.731881
 H        -3.522004        -2.629798         1.198403
 H        -2.596943        -2.432320        -1.816724
