19
Iteration:  3041charge 0 multiplicity 1
 C         1.026470        -0.831734        -0.874002
 C        -0.181258        -0.791775        -0.064751
 C        -1.176351        -0.511787         0.563335
 C        -2.545446        -0.067608         0.880898
 C        -2.876295         1.397870         0.421296
 O        -3.467471        -0.895366         0.386200
 C        -3.262459        -2.251287         0.721255
 C        -2.509362        -3.105176        -0.292625
 O        -1.745654        -3.991476         0.056448
 H         1.723219        -1.657526        -0.480051
 H         0.828022        -0.986572        -2.020010
 H         1.691593         0.021381        -0.873055
 H        -2.669266         0.047755         1.999097
 H        -3.837181         1.772279         0.742103
 H        -2.030563         1.991236         0.901010
 H        -2.856700         1.555156        -0.622318
 H        -2.882980        -2.372838         1.755891
 H        -4.267359        -2.636341         0.573594
 H        -2.824015        -2.809333        -1.394819
