19
Iteration:  3997
 C         1.060974        -1.330448        -0.364315
 C        -0.219797        -0.912947         0.154308
 C        -1.337108        -0.480560         0.384293
 C        -2.468784        -0.137483         1.109908
 C        -2.812986         1.298270         0.760470
 O        -3.602405        -0.836850         0.617237
 C        -3.297617        -2.270332         0.487576
 C        -2.388087        -2.680138        -0.751339
 O        -1.727767        -3.687282        -0.669859
 H         1.311902        -0.714204        -1.328265
 H         1.875219        -1.090888         0.443912
 H         1.074022        -2.464021        -0.554244
 H        -2.172281        -0.309195         2.148798
 H        -2.039928         2.014736         1.224344
 H        -2.839528         1.518106        -0.350208
 H        -3.608214         1.666089         1.393404
 H        -2.748050        -2.520703         1.426629
 H        -4.235212        -2.812634         0.553999
 H        -2.615653        -1.923386        -1.585524
