19
Iteration:  4442
 C         1.746795        -0.454876         0.255412
 C         0.241935        -0.395172         0.246083
 C        -0.912306        -0.532803         0.644123
 C        -2.344659        -0.264633         0.963117
 C        -2.764089         1.212990         1.084727
 O        -3.263868        -0.882542         0.171667
 C        -3.215260        -2.295405         0.392434
 C        -3.132595        -3.075759        -0.943507
 O        -2.973080        -4.266790        -1.059386
 H         2.124495        -0.188964         1.270316
 H         2.068449        -1.439733        -0.079032
 H         2.244902         0.333890        -0.376180
 H        -2.324027        -0.721667         1.975269
 H        -2.039800         2.042650         1.208300
 H        -3.188805         1.358163         0.110087
 H        -3.517053         1.235249         1.866653
 H        -2.540615        -2.581875         1.321949
 H        -4.149729        -2.784308         0.848127
 H        -3.189773        -2.401835        -1.782426
