19
Iteration:  1694charge 0 multiplicity 1
 C         1.620060         0.288652        -0.181820
 C         0.137858         0.081920        -0.007418
 C        -1.059896         0.059078         0.152363
 C        -2.436976        -0.146853         0.349261
 C        -3.197407         1.214014         0.121097
 O        -2.900930        -1.321959        -0.397801
 C        -2.341866        -2.465516         0.375291
 C        -3.270179        -3.747838         0.319866
 O        -3.213172        -4.761742         0.937378
 H         2.025540         0.892219         0.647678
 H         2.061380        -0.815931        -0.158930
 H         1.876730         0.840325        -1.135076
 H        -2.585991        -0.375713         1.440237
 H        -3.720126         1.635728         1.000168
 H        -2.549546         1.961516        -0.289955
 H        -3.970635         0.909811        -0.644450
 H        -1.277252        -2.687044        -0.056280
 H        -2.243605        -2.142340         1.420629
 H        -4.073821        -3.513404        -0.478986
