19
Iteration:   936charge 0 multiplicity 1
 C         1.371972        -0.056449        -0.354510
 C         0.031911        -0.040241         0.221651
 C        -1.180434        -0.096477         0.384824
 C        -2.574110         0.019870         0.335269
 C        -2.974282         1.119133        -0.641095
 O        -3.218942        -1.230617        -0.111488
 C        -2.924215        -2.289641         0.844939
 C        -2.590142        -3.606373         0.280845
 O        -2.658915        -4.665670         0.854076
 H         1.414397         0.783315        -1.070350
 H         2.229586         0.011329         0.292902
 H         1.437562        -0.980726        -1.037912
 H        -2.903577         0.231388         1.383660
 H        -3.756066         1.685262        -0.270660
 H        -2.152523         1.811576        -0.710480
 H        -3.305044         0.741650        -1.618478
 H        -1.916238        -1.932953         1.257461
 H        -3.553568        -2.287033         1.773974
 H        -2.235522        -3.549520        -0.801697
