19
Iteration:  2752
 C         1.437320        -0.256055        -0.622792
 C         0.006456        -0.481310        -0.218837
 C        -1.046152        -0.147449         0.267865
 C        -2.383784         0.035285         0.794591
 C        -3.045668         1.060811        -0.083493
 O        -3.349932        -1.070018         0.887928
 C        -2.914325        -2.347695         1.020356
 C        -2.787421        -3.262243        -0.289324
 O        -2.614698        -4.446957        -0.095101
 H         1.971585        -1.054967        -0.170310
 H         1.535200        -0.234188        -1.704133
 H         1.746073         0.753210        -0.218152
 H        -2.349707         0.414161         1.847210
 H        -4.000817         1.327425         0.325194
 H        -2.342389         1.911750        -0.054195
 H        -3.058725         0.670214        -1.051763
 H        -1.805477        -2.362237         1.344766
 H        -3.548605        -2.824617         1.783569
 H        -2.770597        -2.763310        -1.275646
