19
Iteration:  3285charge 0 multiplicity 1
 C         0.989380        -1.130190        -0.614245
 C        -0.212034        -0.663041         0.003330
 C        -1.248126        -0.368278         0.502837
 C        -2.645209         0.030283         0.952324
 C        -3.059601         1.485901         0.415421
 O        -3.444772        -0.969260         0.458503
 C        -2.954564        -2.245536         0.784059
 C        -2.137204        -2.943855        -0.453924
 O        -2.011367        -4.108141        -0.273562
 H         0.853549        -2.257270        -0.900151
 H         1.423386        -0.711993        -1.526356
 H         1.909008        -1.112269         0.024453
 H        -2.663455         0.124485         2.086405
 H        -2.153084         1.976926         0.082212
 H        -3.883446         1.481080        -0.313620
 H        -3.477179         1.948243         1.323072
 H        -2.494391        -2.115325         1.836879
 H        -3.848214        -2.851764         0.819998
 H        -2.000465        -2.426068        -1.553837
