19
Iteration:  2725
 C         1.540866        -0.212853        -0.585708
 C         0.092814        -0.313884        -0.169222
 C        -1.072811        -0.389907         0.290369
 C        -2.371583         0.103194         0.730033
 C        -3.237203         1.157009        -0.180212
 O        -3.227122        -1.100939         0.868380
 C        -2.824938        -2.407379         1.129711
 C        -2.790077        -3.260960        -0.191598
 O        -2.722809        -4.479490        -0.179580
 H         1.708625        -1.338618        -0.713032
 H         1.603187         0.319998        -1.592088
 H         2.243587         0.333617         0.023233
 H        -2.358275         0.580575         1.723013
 H        -3.938597         1.607830         0.571363
 H        -2.521345         1.910296        -0.518606
 H        -3.640070         0.579959        -1.099341
 H        -1.974705        -2.611929         1.721446
 H        -3.781338        -2.777522         1.559297
 H        -3.039645        -2.639817        -1.044554
