19
Iteration:  2867
 C         1.253381        -0.858053        -0.731069
 C        -0.072214        -0.430553        -0.169694
 C        -1.109490        -0.101962         0.336240
 C        -2.577676         0.107012         0.903447
 C        -3.260594         1.440146         0.384689
 O        -3.260794        -1.031567         0.472801
 C        -2.879401        -2.378677         0.773484
 C        -2.565791        -3.234707        -0.321826
 O        -2.271087        -4.344701         0.058193
 H         1.979984        -0.031302        -0.996775
 H         1.914858        -1.506819        -0.096595
 H         1.172515        -1.579902        -1.476255
 H        -2.416890         0.142731         1.994118
 H        -4.135343         1.804517         0.948111
 H        -2.461438         2.280038         0.318403
 H        -3.458347         1.372104        -0.706111
 H        -1.951897        -2.502361         1.378699
 H        -3.846849        -2.721174         1.305829
 H        -2.590839        -2.961101        -1.343819
