19
Iteration:  2221charge 0 multiplicity 1
 C         0.981608        -1.360827        -0.698352
 C        -0.271250        -0.702281        -0.361166
 C        -1.143890        -0.244239         0.347341
 C        -2.555204         0.030889         0.706602
 C        -3.325390         1.256079         0.427667
 O        -3.512772        -0.916355         0.090133
 C        -3.280418        -2.238344         0.412083
 C        -2.090841        -2.995247        -0.056025
 O        -1.513048        -3.716342         0.779193
 H         1.464728        -1.907961         0.122403
 H         0.869759        -1.924053        -1.628340
 H         1.720798        -0.641443        -1.103545
 H        -2.533536        -0.172830         1.782504
 H        -4.014219         1.378489         1.301892
 H        -2.698115         2.124540         0.263017
 H        -3.944769         1.158551        -0.559306
 H        -3.149274        -2.392437         1.488553
 H        -4.248678        -2.658575         0.085800
 H        -1.650364        -2.971305        -1.065703
