19
Iteration:  4579charge 0 multiplicity 1
 C         1.481914        -0.632918         0.008332
 C         0.149828        -0.523644         0.682124
 C        -0.995491        -0.252416         0.993424
 C        -2.439552        -0.125471         1.241110
 C        -2.978864         1.332064         0.942374
 O        -2.975818        -1.015169         0.128010
 C        -2.532989        -2.436281         0.254658
 C        -2.908629        -3.083484        -1.044982
 O        -3.439773        -4.167687        -1.141451
 H         1.113333        -1.022899        -0.964125
 H         1.887811         0.369518        -0.248439
 H         2.159878        -1.337359         0.459936
 H        -2.663489        -0.511741         2.217302
 H        -2.338717         2.119861         1.361697
 H        -2.736191         1.542693        -0.153131
 H        -4.045886         1.286971         1.108119
 H        -1.370456        -2.432781         0.445947
 H        -3.143993        -3.027815         0.966247
 H        -2.402205        -2.597803        -2.014210
