19
Iteration:  1886
 C         1.370793        -0.277002        -0.321579
 C        -0.012436        -0.295730         0.069699
 C        -1.235399         0.008612         0.155588
 C        -2.577106         0.169921         0.549561
 C        -3.059813         1.094800        -0.570422
 O        -3.259997        -1.118852         0.766085
 C        -2.552111        -2.375912         1.028114
 C        -2.857628        -3.437088        -0.008680
 O        -2.564866        -4.588590         0.070747
 H         1.878633        -1.303698        -0.291768
 H         1.503207         0.141757        -1.293165
 H         2.041318         0.346783         0.244338
 H        -2.560762         0.704375         1.540253
 H        -4.126868         1.409974        -0.457018
 H        -2.307585         1.770426        -0.893991
 H        -3.222625         0.361093        -1.455423
 H        -1.422536        -2.182879         1.133987
 H        -2.911561        -2.779847         1.979652
 H        -3.447699        -3.018248        -0.782943
