19
Iteration:  1012charge 0 multiplicity 1
 C         1.625425         0.150716        -0.180684
 C         0.203998        -0.216432        -0.104118
 C        -0.989460        -0.262328         0.171732
 C        -2.515307         0.004410         0.394001
 C        -3.211654         0.920036        -0.549135
 O        -3.183416        -1.250023         0.025479
 C        -3.157907        -2.202037         0.998712
 C        -2.930814        -3.499465         0.289870
 O        -2.502000        -4.540354         0.656462
 H         2.041496        -0.502046        -0.941592
 H         1.800803         1.124047        -0.565309
 H         2.161208         0.076174         0.829300
 H        -2.701282         0.170745         1.440489
 H        -4.006212         0.330186        -0.837508
 H        -3.430190         1.907422        -0.261445
 H        -2.570393         1.058181        -1.436146
 H        -2.414291        -2.015245         1.752911
 H        -4.078961        -2.194014         1.600720
 H        -2.972296        -3.276242        -0.806115
