19
Iteration:  4342charge 0 multiplicity 1
 C         1.533725        -0.563168         0.002761
 C         0.140908        -0.462580         0.363078
 C        -0.965550        -0.456505         0.837123
 C        -2.411300        -0.274524         1.095551
 C        -2.668919         1.224087         0.824155
 O        -3.208156        -1.000355         0.257451
 C        -3.354722        -2.360091         0.415743
 C        -2.906725        -2.929380        -0.879439
 O        -2.808157        -4.120712        -1.035173
 H         1.729368        -1.423156        -0.695295
 H         1.866385         0.392516        -0.399664
 H         2.087021        -0.698546         0.996666
 H        -2.444788        -0.610002         2.219446
 H        -2.265080         1.882493         1.603192
 H        -2.133498         1.503766        -0.109676
 H        -3.719763         1.247302         0.699044
 H        -3.013907        -3.113029         1.230493
 H        -4.413057        -2.457263         0.587945
 H        -2.699177        -2.124526        -1.712716
