19
Iteration:  1160charge 0 multiplicity 1
 C         1.495120        -0.291321        -0.011288
 C         0.121605         0.040984         0.338676
 C        -1.097724         0.241500         0.317727
 C        -2.623175         0.153198         0.316210
 C        -3.534685         0.967271        -0.687027
 O        -3.019364        -1.190190         0.063798
 C        -2.199694        -2.358652         0.480066
 C        -3.060922        -3.566226         0.417141
 O        -2.724013        -4.695004         0.592391
 H         2.142225         0.609055         0.067600
 H         1.931707        -1.253614         0.479072
 H         1.425298        -0.473828        -1.098181
 H        -2.989376         0.466232         1.306740
 H        -4.445851         1.330552        -0.159528
 H        -3.202757         1.949572        -1.080849
 H        -3.646355         0.283055        -1.521360
 H        -1.498901        -2.411663        -0.420418
 H        -1.686922        -2.449237         1.477090
 H        -4.187666        -3.343619         0.333065
