19
Iteration:  3477
 C         1.410585        -0.792386        -0.520624
 C         0.015971        -0.584619         0.031280
 C        -1.182711        -0.430821         0.236802
 C        -2.402780        -0.024674         0.944677
 C        -3.033192         1.343518         0.511062
 O        -3.474682        -0.901129         0.661162
 C        -3.253962        -2.361259         0.672097
 C        -2.530879        -3.021295        -0.421869
 O        -2.192086        -4.188975        -0.398032
 H         1.273705        -0.505726        -1.520449
 H         2.138192        -0.129441        -0.056889
 H         1.735515        -1.868350        -0.392315
 H        -2.181987        -0.141424         2.045875
 H        -2.858853         2.139018         1.230186
 H        -2.770415         1.823689        -0.406656
 H        -4.132746         1.101094         0.471692
 H        -2.746436        -2.599732         1.585001
 H        -4.282055        -2.793612         0.703201
 H        -2.626138        -2.329063        -1.396640
