19
Iteration:  3451
 C         1.468278        -0.753513        -0.360834
 C        -0.081051        -0.665853        -0.251554
 C        -1.201892        -0.464928         0.214495
 C        -2.487786        -0.131587         0.874360
 C        -2.901342         1.297716         0.495190
 O        -3.573703        -0.952445         0.694147
 C        -3.186149        -2.374347         0.792507
 C        -2.621668        -2.931638        -0.500456
 O        -2.150111        -4.044979        -0.336269
 H         1.659441         0.133787        -1.024378
 H         1.803515        -0.413069         0.601054
 H         1.851913        -1.703599        -0.755026
 H        -2.241556        -0.265228         1.949942
 H        -2.596611         2.056072         1.229037
 H        -2.465967         1.685459        -0.447822
 H        -3.959644         1.357181         0.337949
 H        -2.333204        -2.454678         1.551217
 H        -4.063547        -2.971847         1.114996
 H        -2.787260        -2.380202        -1.537230
