19
Iteration:   707
 C         1.519599         0.177799        -0.267668
 C         0.096388         0.273191        -0.007454
 C        -1.070972         0.195977         0.336005
 C        -2.441623         0.034374         0.415568
 C        -3.095465         0.845983        -0.815722
 O        -2.986658        -1.242911         0.088644
 C        -2.674330        -2.392347         0.916870
 C        -3.076814        -3.749939         0.257373
 O        -2.953680        -4.821871         0.808787
 H         1.719801        -0.027881        -1.278671
 H         2.101196         0.962723         0.126408
 H         1.898587        -0.728065         0.272381
 H        -2.838139         0.303852         1.407668
 H        -4.127380         1.125355        -0.506200
 H        -2.438592         1.739450        -0.905938
 H        -3.089942         0.223139        -1.701928
 H        -1.484835        -2.433331         1.002526
 H        -3.140766        -2.353001         1.917867
 H        -3.494084        -3.617823        -0.770040
