19
Iteration:   322
 C         1.650345         0.159732         0.174777
 C         0.175357         0.210278        -0.030344
 C        -1.056914         0.327475        -0.088341
 C        -2.541760        -0.143755         0.037994
 C        -3.402143         0.931312        -0.644099
 O        -2.790627        -1.432797        -0.534312
 C        -2.311647        -2.515343         0.388179
 C        -3.246606        -3.651829         0.756430
 O        -3.164131        -4.577944         1.553757
 H         1.936012         0.766017         1.046196
 H         2.006149        -0.878129         0.299106
 H         2.270171         0.597507        -0.630672
 H        -2.786917        -0.159805         1.100108
 H        -3.035277         1.866332        -0.355248
 H        -3.405686         0.906382        -1.732596
 H        -4.437817         0.863457        -0.386858
 H        -1.434240        -2.925250        -0.140704
 H        -1.777507        -2.102842         1.271772
 H        -4.117500        -3.796686         0.020530
