19
Iteration:   955
 C         1.402221        -0.003155        -0.371136
 C         0.062010         0.063790         0.170897
 C        -1.113614        -0.149426         0.318354
 C        -2.630170         0.070710         0.326306
 C        -2.834296         1.238713        -0.654631
 O        -3.372146        -1.157436        -0.028066
 C        -3.002020        -2.261365         0.871985
 C        -2.685576        -3.796046         0.264356
 O        -2.559139        -4.835155         0.863993
 H         1.604436         0.397801        -1.369062
 H         2.055749         0.486677         0.358514
 H         1.722322        -1.039377        -0.467541
 H        -2.884972         0.367478         1.338296
 H        -3.830080         1.721176        -0.583743
 H        -2.209726         2.114619        -0.426851
 H        -2.769377         0.819309        -1.640276
 H        -2.046317        -2.013820         1.295898
 H        -3.714709        -2.402354         1.686974
 H        -2.271318        -3.759830        -0.738141
