19
Iteration:   790
 C         1.491143        -0.085386         0.077418
 C         0.014349        -0.358628        -0.181452
 C        -1.109168         0.046762         0.017894
 C        -2.543166         0.118996         0.142537
 C        -3.591950         0.985349        -0.588408
 O        -2.993237        -1.273655         0.206582
 C        -2.273294        -2.270513         0.951697
 C        -2.545061        -3.508108         0.181765
 O        -3.079719        -4.492931         0.750342
 H         2.111413        -0.977384         0.489527
 H         2.000141         0.066346        -0.964804
 H         1.533216         0.748634         0.761370
 H        -2.757617         0.361763         1.232951
 H        -4.655074         0.581730        -0.522212
 H        -3.636812         2.028546        -0.231055
 H        -3.385341         1.163983        -1.651861
 H        -1.168403        -1.975697         1.166563
 H        -2.743950        -2.435780         1.996261
 H        -2.303853        -3.660605        -0.874361
