19
Iteration:  4833charge 0 multiplicity 1
 C         1.866880        -0.072667         0.379759
 C         0.356654        -0.183197         0.656408
 C        -0.770503        -0.275313         1.019670
 C        -2.165956        -0.376774         1.173806
 C        -2.790617         1.073551         1.055601
 O        -2.803594        -1.171237         0.082845
 C        -2.731185        -2.569864         0.059610
 C        -3.780920        -3.078355        -1.027249
 O        -3.725708        -4.223659        -1.427750
 H         2.172627        -0.458734        -0.582709
 H         1.903567         1.020150         0.394749
 H         2.274329        -0.716566         1.126236
 H        -2.438543        -0.798054         2.104122
 H        -2.642346         1.472866         2.068573
 H        -2.289343         1.601385         0.300641
 H        -3.844444         0.986088         0.738202
 H        -1.799299        -2.909007        -0.261885
 H        -2.992965        -2.862351         1.115257
 H        -4.558682        -2.435637        -1.428989
