19
Iteration:  1153charge 0 multiplicity 1
 C         1.439418        -0.275506        -0.022258
 C         0.086312        -0.018622         0.407239
 C        -1.111485         0.192559         0.247110
 C        -2.576424         0.153756         0.285699
 C        -3.474396         0.988389        -0.658389
 O        -3.021645        -1.213698         0.050073
 C        -2.206408        -2.269372         0.508174
 C        -3.097255        -3.554347         0.464779
 O        -2.683738        -4.721791         0.568380
 H         2.048103         0.576448         0.222376
 H         1.910987        -1.163630         0.210046
 H         1.277080        -0.223428        -1.112448
 H        -2.976226         0.535253         1.261294
 H        -4.322307         1.255021        -0.061797
 H        -3.035360         1.859970        -1.150280
 H        -3.962779         0.401366        -1.544154
 H        -1.406488        -2.530556        -0.160276
 H        -1.670253        -2.212254         1.456040
 H        -4.138706        -3.352039         0.136322
