19
Iteration:  3007charge 0 multiplicity 1
 C         1.033585        -0.904239        -0.855079
 C        -0.017629        -0.578649         0.011607
 C        -1.185070        -0.316385         0.385830
 C        -2.559201        -0.018188         0.907477
 C        -2.886055         1.421129         0.511785
 O        -3.566839        -0.967666         0.290374
 C        -3.287980        -2.286093         0.760329
 C        -2.431562        -3.111038        -0.264473
 O        -1.829966        -4.145818         0.027127
 H         0.908549        -2.013486        -0.970336
 H         0.883480        -0.568124        -1.947674
 H         2.061612        -0.704049        -0.471555
 H        -2.636639        -0.176578         2.007829
 H        -3.568693         1.966873         1.150958
 H        -1.927471         1.972458         0.465302
 H        -3.241392         1.404350        -0.498389
 H        -2.711272        -2.229030         1.707577
 H        -4.137426        -2.874957         1.055511
 H        -2.113824        -2.640210        -1.147564
