19
Iteration:  3530
 C         1.092078        -0.922452        -0.640560
 C        -0.089852        -0.394829         0.003885
 C        -1.103934        -0.212678         0.660389
 C        -2.509916        -0.047170         1.072109
 C        -2.941074         1.347056         0.599211
 O        -3.299451        -0.983017         0.250444
 C        -3.178724        -2.305820         0.692599
 C        -2.363426        -3.062691        -0.363858
 O        -2.300075        -4.274797        -0.440648
 H         0.816837        -1.798096        -1.215337
 H         1.725298        -0.290516        -1.201131
 H         1.789698        -1.071952         0.224992
 H        -2.661785        -0.445689         2.072537
 H        -2.138044         2.066651         0.758297
 H        -3.088293         1.290302        -0.440923
 H        -3.873694         1.713266         1.121967
 H        -2.691568        -2.239333         1.709612
 H        -4.235861        -2.725124         0.754561
 H        -1.756515        -2.393469        -1.121960
