19
Iteration:  3207charge 0 multiplicity 1
 C         0.946205        -1.316149        -0.643451
 C        -0.009992        -0.444176        -0.039406
 C        -1.143188        -0.110554         0.263172
 C        -2.527457         0.060107         0.870672
 C        -3.150482         1.364151         0.643284
 O        -3.456450        -0.947330         0.401610
 C        -3.157575        -2.308192         0.698835
 C        -2.390092        -3.064538        -0.402316
 O        -1.822440        -4.062595        -0.122870
 H         1.227132        -1.119165        -1.738871
 H         1.947034        -1.170053        -0.114118
 H         0.782699        -2.323083        -0.348298
 H        -2.357899        -0.072795         1.963298
 H        -3.095089         2.054971         1.477268
 H        -2.661699         1.847182        -0.135464
 H        -4.225182         1.219468         0.333242
 H        -2.464620        -2.230606         1.576802
 H        -4.055498        -2.701183         1.127088
 H        -2.275913        -2.702844        -1.379365
