19
Iteration:  4363charge 0 multiplicity 1
 C         1.653394        -0.452440         0.069944
 C         0.249524        -0.491802         0.383821
 C        -0.933605        -0.519805         0.734391
 C        -2.406926        -0.274147         1.113506
 C        -2.633307         1.228038         0.879403
 O        -3.335604        -0.951834         0.232965
 C        -3.431694        -2.349383         0.410799
 C        -2.994328        -2.978289        -0.942525
 O        -2.823102        -4.170546        -1.026960
 H         1.877740        -1.501297        -0.193892
 H         1.777136         0.173415        -0.809500
 H         2.255273         0.013695         0.870027
 H        -2.540517        -0.612384         2.193009
 H        -2.296029         1.692630         1.792839
 H        -2.025014         1.563554         0.029795
 H        -3.657401         1.260676         0.650249
 H        -2.593976        -2.651522         1.222774
 H        -4.356481        -2.911494         0.779049
 H        -2.803267        -2.220184        -1.741823
