19
Iteration:  3141
 C         1.150661        -1.044991        -0.664328
 C        -0.223443        -0.866894        -0.220373
 C        -1.254851        -0.316842         0.140429
 C        -2.462331        -0.006793         0.827536
 C        -2.961779         1.391936         0.634059
 O        -3.603265        -0.909560         0.464170
 C        -3.303352        -2.261795         0.802033
 C        -2.410000        -2.969464        -0.254390
 O        -1.685260        -3.966375        -0.080591
 H         1.580599        -0.001606        -0.471192
 H         1.639640        -1.851464        -0.016685
 H         1.334270        -1.483916        -1.611279
 H        -2.344026        -0.207995         1.900702
 H        -3.945387         1.545786         1.094358
 H        -2.267259         2.062670         1.120443
 H        -2.942115         1.554770        -0.447534
 H        -2.910099        -2.428733         1.814768
 H        -4.057848        -2.930918         0.476335
 H        -2.726417        -2.539101        -1.263149
