19
Iteration:  4510charge 0 multiplicity 1
 C         1.682066        -0.626145         0.143030
 C         0.302042        -0.322598         0.461911
 C        -0.900323        -0.218758         0.684968
 C        -2.320797        -0.140335         1.042011
 C        -2.932172         1.267008         1.059254
 O        -3.162169        -0.992408         0.209123
 C        -3.031586        -2.416898         0.393087
 C        -3.024034        -3.097769        -0.970223
 O        -3.201024        -4.291166        -1.159434
 H         2.069844         0.282114        -0.295069
 H         2.289240        -0.941190         1.017107
 H         1.669094        -1.423495        -0.628826
 H        -2.511296        -0.544124         2.019105
 H        -2.624286         1.871438         1.882444
 H        -2.557078         1.716943         0.169653
 H        -3.988856         0.966389         0.981852
 H        -2.109120        -2.883460         0.925334
 H        -3.897293        -2.667322         1.036279
 H        -2.699728        -2.375800        -1.796664
