19
Iteration:  1089
 C         1.532238        -0.155826         0.018814
 C         0.083665         0.117810        -0.208112
 C        -1.030750        -0.009277         0.262000
 C        -2.536192         0.050741         0.334538
 C        -3.210970         1.128777        -0.594151
 O        -3.176720        -1.260218        -0.064908
 C        -2.775789        -2.298532         0.867998
 C        -3.166213        -3.711324         0.487132
 O        -2.394088        -4.641713         0.536890
 H         1.728515        -0.529245         1.044180
 H         2.036028        -0.736068        -0.720767
 H         1.973644         0.897988        -0.023965
 H        -2.800395         0.210478         1.379718
 H        -3.983574         1.517586         0.018513
 H        -2.591377         1.958861        -0.898788
 H        -3.614799         0.630321        -1.526938
 H        -1.685601        -2.286324         0.990979
 H        -3.263335        -2.031184         1.838126
 H        -4.259682        -3.892995         0.245283
