19
Iteration:  1314charge 0 multiplicity 1
 C         1.522254         0.324511        -0.120850
 C         0.104797         0.180696        -0.008460
 C        -1.051815        -0.036193         0.261348
 C        -2.511870        -0.127214         0.354494
 C        -3.049280         1.236075        -0.260068
 O        -2.960368        -1.388532        -0.190139
 C        -2.521718        -2.354109         0.708740
 C        -3.203836        -3.743343         0.323307
 O        -3.002310        -4.884158         0.625389
 H         1.979274        -0.686908         0.020818
 H         1.880222         0.691724        -1.165878
 H         2.017778         0.972877         0.674249
 H        -2.785365        -0.184199         1.452303
 H        -2.431862         1.309414        -1.133416
 H        -4.100608         1.130604        -0.490754
 H        -2.940715         2.157459         0.406442
 H        -1.433735        -2.372633         0.910679
 H        -3.066303        -2.063091         1.642742
 H        -4.036543        -3.597245        -0.463690
