19
Iteration:  2027charge 0 multiplicity 1
 C         1.144334        -0.914127        -0.435520
 C        -0.209276        -0.667880         0.003974
 C        -1.240617        -0.240875         0.352811
 C        -2.607598         0.084469         0.640691
 C        -3.287400         1.109385        -0.384213
 O        -3.495059        -1.036114         0.623032
 C        -2.814182        -2.161385         0.991953
 C        -2.306908        -2.971853        -0.138257
 O        -1.959989        -4.113511         0.093398
 H         1.693477         0.109234        -0.590463
 H         1.833212        -1.427224         0.206916
 H         1.223859        -1.519326        -1.315822
 H        -2.683841         0.417628         1.679542
 H        -3.836989         1.861390         0.128058
 H        -2.490777         1.517531        -0.886816
 H        -3.953066         0.610608        -1.128248
 H        -1.879464        -1.992165         1.515631
 H        -3.467465        -2.695407         1.629388
 H        -2.143662        -2.543074        -1.142133
