19
Iteration:  3537
 C         1.052029        -0.900807        -0.649816
 C        -0.125372        -0.390476         0.034205
 C        -1.159469        -0.284961         0.661488
 C        -2.519401        -0.083950         1.097975
 C        -2.964926         1.395238         0.587610
 O        -3.230022        -0.944802         0.230453
 C        -3.128377        -2.271478         0.632847
 C        -2.295996        -3.075952        -0.318946
 O        -2.336156        -4.266754        -0.436442
 H         0.971941        -2.017777        -0.994298
 H         1.655767        -0.354227        -1.460490
 H         1.760944        -1.118248         0.157429
 H        -2.662049        -0.313073         2.190909
 H        -2.128248         2.058072         0.868138
 H        -3.256378         1.277178        -0.484621
 H        -3.781397         1.733730         1.233646
 H        -2.695040        -2.316582         1.663144
 H        -4.083556        -2.762599         0.734079
 H        -1.869203        -2.650240        -1.252010
