19
Iteration:  4810charge 0 multiplicity 1
 C         1.897927        -0.060024         0.342515
 C         0.464025        -0.256114         0.737530
 C        -0.759632        -0.522228         0.903539
 C        -2.230866        -0.358719         1.059901
 C        -2.836465         1.064471         1.108102
 O        -2.970324        -1.063743        -0.000882
 C        -2.819393        -2.456086         0.125202
 C        -3.688768        -3.099756        -0.924614
 O        -3.599598        -4.204866        -1.417008
 H         2.233548         0.257787        -0.617785
 H         2.062053         0.841964         0.972351
 H         2.487077        -0.878616         0.669672
 H        -2.400509        -0.898125         1.956906
 H        -2.495104         1.550383         2.052963
 H        -2.416303         1.545941         0.290133
 H        -3.926854         1.019212         0.965642
 H        -1.830219        -2.704838        -0.050682
 H        -3.151152        -2.788205         1.149435
 H        -4.638976        -2.597181        -1.067846
