19
Iteration:  1157
 C         1.466511        -0.287058        -0.011279
 C         0.123654         0.014050         0.368169
 C        -1.110956         0.220421         0.286161
 C        -2.604428         0.150487         0.303550
 C        -3.507880         0.971272        -0.676227
 O        -3.020255        -1.197120         0.054365
 C        -2.204373        -2.316565         0.499932
 C        -3.073885        -3.561894         0.438099
 O        -2.708383        -4.706559         0.581450
 H         2.101533         0.647083         0.123244
 H         1.948418        -1.270186         0.366911
 H         1.320564        -0.345539        -1.118390
 H        -3.015793         0.520913         1.252985
 H        -4.403893         1.329379        -0.090831
 H        -3.172419         1.920062        -1.133714
 H        -3.766126         0.370950        -1.508299
 H        -1.453154        -2.461971        -0.354677
 H        -1.660715        -2.396820         1.476368
 H        -4.149381        -3.361104         0.253344
