19
Iteration:  3970
 C         1.168515        -1.465985        -0.471174
 C        -0.127204        -0.816210         0.147542
 C        -1.220218        -0.368647         0.543859
 C        -2.563767        -0.000674         1.048684
 C        -2.984883         1.491097         0.884679
 O        -3.595370        -0.927343         0.470278
 C        -3.202712        -2.319663         0.515688
 C        -2.388130        -2.738331        -0.672867
 O        -1.785927        -3.796477        -0.695639
 H         1.695547        -0.695276        -0.994782
 H         1.724075        -1.977097         0.272243
 H         0.676045        -2.279384        -1.036446
 H        -2.483916        -0.331851         2.131187
 H        -1.998131         1.915134         0.980068
 H        -3.391027         1.880767        -0.021519
 H        -3.584758         1.742217         1.823732
 H        -2.793795        -2.355637         1.561360
 H        -4.208619        -2.796002         0.384296
 H        -2.549524        -2.087182        -1.553387
