19
Iteration:   906charge 0 multiplicity 1
 C         1.444169        -0.167805        -0.291391
 C        -0.000065        -0.208340         0.094592
 C        -1.158303         0.028574         0.467338
 C        -2.608491         0.031757         0.365394
 C        -3.322158         0.968886        -0.665764
 O        -2.923126        -1.268573        -0.105826
 C        -2.775191        -2.226569         0.912574
 C        -2.513647        -3.468019         0.223040
 O        -2.821536        -4.525781         0.806550
 H         1.724514         0.895455        -0.321000
 H         2.223869        -0.691838         0.268551
 H         1.509792        -0.378109        -1.380717
 H        -2.933467         0.218743         1.412100
 H        -4.048261         1.675157        -0.188531
 H        -2.615705         1.698229        -1.091623
 H        -3.832800         0.339732        -1.483934
 H        -1.869311        -1.928076         1.523888
 H        -3.622038        -2.387996         1.584472
 H        -2.267116        -3.456634        -0.863754
