19
Iteration:   471
 C         1.472070         0.321983         0.013551
 C         0.049009         0.473136         0.057881
 C        -1.066874         0.005974         0.269245
 C        -2.536383        -0.101578         0.194843
 C        -3.143192         0.907504        -0.727071
 O        -2.830859        -1.451059        -0.334543
 C        -2.187029        -2.576684         0.417313
 C        -3.116277        -3.792876         0.418893
 O        -3.318501        -4.504925         1.385638
 H         1.834213        -0.491419        -0.653753
 H         1.960544         1.237465        -0.324336
 H         1.836482        -0.002381         0.946142
 H        -2.907788         0.090280         1.240410
 H        -4.017411         1.416915        -0.222613
 H        -2.456673         1.768237        -0.828132
 H        -3.508537         0.487257        -1.664511
 H        -1.183895        -2.739745        -0.102107
 H        -2.113157        -2.353328         1.502493
 H        -3.576533        -4.187311        -0.500864
