19
Iteration:  2443charge 0 multiplicity 1
 C         1.444899        -0.240486        -0.599578
 C         0.082932        -0.507789        -0.349986
 C        -1.053815        -0.149037         0.054197
 C        -2.386174        -0.025472         0.654381
 C        -3.044559         1.305270         0.270463
 O        -3.345926        -0.989063         0.264480
 C        -3.288362        -2.296140         0.866174
 C        -2.573143        -3.460825         0.015702
 O        -2.463473        -4.577574         0.412838
 H         2.109849        -1.155439        -0.745133
 H         1.450665         0.438195        -1.471398
 H         1.908628         0.310656         0.206553
 H        -2.273757        -0.015886         1.770716
 H        -4.138067         1.219720         0.524087
 H        -2.713662         2.225934         0.734745
 H        -3.016393         1.421339        -0.839009
 H        -2.955245        -2.284140         1.895099
 H        -4.304412        -2.701647         0.966653
 H        -2.146443        -3.121087        -0.894479
