19
Iteration:  4431
 C         1.710202        -0.404679         0.252686
 C         0.221951        -0.495672         0.295363
 C        -0.945128        -0.378229         0.584664
 C        -2.302043        -0.319939         1.049720
 C        -2.677001         1.181278         1.052306
 O        -3.296985        -0.931442         0.155720
 C        -3.289798        -2.318407         0.399467
 C        -3.115069        -3.033560        -0.986132
 O        -2.939174        -4.243464        -1.005679
 H         2.090164        -0.580868         1.282379
 H         2.113625        -1.246257        -0.318545
 H         2.041929         0.516478        -0.295974
 H        -2.577346        -0.759521         2.024580
 H        -1.723523         1.732800         1.190291
 H        -3.088005         1.375831         0.073763
 H        -3.474778         1.392619         1.767769
 H        -2.265242        -2.608354         0.927882
 H        -4.263039        -2.563222         0.918896
 H        -3.179197        -2.436316        -1.875105
