19
Iteration:  2128charge 0 multiplicity 1
 C         1.007757        -1.357431        -0.572822
 C        -0.278609        -0.802609        -0.273932
 C        -1.285945        -0.473224         0.242807
 C        -2.571290         0.076221         0.686925
 C        -3.313538         1.316867         0.167364
 O        -3.616422        -0.923865         0.312635
 C        -3.163427        -2.196727         0.698940
 C        -2.150669        -2.902553        -0.144328
 O        -1.398939        -3.668539         0.498589
 H         0.975190        -2.155531        -1.333730
 H         1.751243        -0.571175        -0.833334
 H         1.492996        -1.913948         0.236113
 H        -2.566520         0.101450         1.786708
 H        -4.309231         0.961781         0.033627
 H        -3.248555         2.179695         0.905132
 H        -2.887555         1.640268        -0.726075
 H        -2.636796        -2.076887         1.638460
 H        -3.909263        -2.916170         0.909085
 H        -2.173058        -2.877430        -1.325835
