19
Iteration:  1458
 C         1.685076         0.624134        -0.224652
 C         0.252924         0.411766        -0.125526
 C        -0.848986         0.152098         0.232728
 C        -2.268820        -0.148613         0.492631
 C        -3.170676         0.807602        -0.208933
 O        -2.703750        -1.425563        -0.018496
 C        -2.748915        -2.582002         0.771504
 C        -3.312894        -3.754542         0.033631
 O        -3.484523        -4.800163         0.707143
 H         1.916534         1.687599        -0.562106
 H         2.128462         0.409756         0.760844
 H         2.112360        -0.103982        -1.000880
 H        -2.374840        -0.139387         1.608087
 H        -4.035768         1.083111         0.346438
 H        -2.815676         1.832813        -0.375858
 H        -3.246331         0.330975        -1.133107
 H        -1.748918        -2.926000         1.046161
 H        -3.316070        -2.310859         1.687278
 H        -3.521677        -3.609233        -1.124179
