19
Iteration:  2372
 C         1.416041        -0.342460        -0.836203
 C         0.108713        -0.354728        -0.023953
 C        -1.070407        -0.466483         0.187515
 C        -2.505924        -0.222985         0.601777
 C        -2.891318         1.220905         0.271176
 O        -3.569697        -1.066655         0.147480
 C        -3.480334        -2.329934         0.720200
 C        -2.482296        -3.193096         0.017491
 O        -2.168223        -4.200567         0.613509
 H         1.164076        -0.232941        -1.882654
 H         2.107929         0.463906        -0.511499
 H         1.996866        -1.318848        -0.858239
 H        -2.414958        -0.407550         1.693649
 H        -3.659538         1.637644         0.922999
 H        -2.061194         1.899361         0.350936
 H        -3.291033         1.223384        -0.779345
 H        -3.277156        -2.311623         1.843978
 H        -4.542919        -2.679330         0.691741
 H        -2.195208        -2.943830        -0.969451
