19
Iteration:   167
 C         1.524663         0.538056        -0.272720
 C         0.234139         0.055751         0.084986
 C        -0.954495        -0.164994         0.190775
 C        -2.417681        -0.068369         0.051573
 C        -3.045350         0.590574        -1.178497
 O        -2.879302        -1.380752         0.027292
 C        -2.441514        -2.330813         0.995073
 C        -3.465773        -3.459716         0.879239
 O        -3.161578        -4.636531         0.971562
 H         1.705757         0.126592        -1.317129
 H         1.503760         1.625897        -0.293253
 H         2.234192         0.249052         0.434798
 H        -2.782437         0.450857         1.007375
 H        -2.398069         1.373328        -1.551746
 H        -3.344992        -0.153586        -1.885162
 H        -3.879774         1.137626        -0.848934
 H        -1.428427        -2.752900         0.811540
 H        -2.548003        -1.904032         2.061658
 H        -4.471809        -3.036656         0.542411
