19
Iteration:  4423
 C         1.642861        -0.416930         0.221751
 C         0.260799        -0.530428         0.349717
 C        -0.936999        -0.347846         0.547590
 C        -2.348453        -0.275351         1.094177
 C        -2.635912         1.153625         1.022733
 O        -3.301426        -0.955364         0.154196
 C        -3.317254        -2.346857         0.320905
 C        -3.126662        -3.042507        -0.948776
 O        -2.919396        -4.224639        -0.991559
 H         2.124775        -0.542164         1.207007
 H         2.160095        -1.128949        -0.491124
 H         1.958545         0.651967         0.003713
 H        -2.234039        -0.710634         2.189629
 H        -1.755471         1.734378         1.358551
 H        -2.988826         1.544144         0.035193
 H        -3.357708         1.623775         1.779238
 H        -2.414652        -2.774239         0.845105
 H        -4.151910        -2.670893         0.918941
 H        -3.138269        -2.381357        -1.873897
