19
Iteration:    37
 C         1.597545         0.229252        -0.165961
 C         0.203561        -0.115743        -0.185594
 C        -0.999460         0.004721         0.020309
 C        -2.417310        -0.034750        -0.011293
 C        -3.289978         0.714598        -1.106640
 O        -2.681482        -1.451629        -0.077111
 C        -2.623007        -2.158363         1.134542
 C        -3.391256        -3.466426         0.778865
 O        -3.020989        -4.541835         1.216124
 H         1.754588         0.931650         0.701102
 H         2.225387        -0.642524         0.009669
 H         1.853833         0.725858        -1.051804
 H        -2.731887         0.352353         1.009583
 H        -3.953247        -0.057808        -1.626039
 H        -3.958499         1.392080        -0.590738
 H        -2.665775         1.229447        -1.833316
 H        -1.663795        -2.476598         1.543284
 H        -3.172920        -1.582280         1.908893
 H        -4.252130        -3.286604         0.076519
