19
Iteration:  3795charge 0 multiplicity 1
 C         1.332068        -0.821883        -0.558773
 C        -0.020371        -0.720622         0.150579
 C        -1.171213        -0.533541         0.489872
 C        -2.427548        -0.131358         0.975640
 C        -2.785252         1.330072         0.771635
 O        -3.539971        -0.897486         0.525142
 C        -3.527261        -2.329587         0.442528
 C        -2.544587        -2.896719        -0.613512
 O        -1.993900        -3.978934        -0.396805
 H         1.106604        -1.711053        -1.171631
 H         1.441757        -0.095482        -1.382087
 H         2.070846        -1.079638         0.307893
 H        -2.163729        -0.253573         2.073302
 H        -1.987727         1.962435         1.194060
 H        -3.087776         1.415387        -0.280141
 H        -3.749100         1.510128         1.265556
 H        -3.229888        -2.803055         1.386620
 H        -4.566383        -2.551741         0.135362
 H        -2.403063        -2.323093        -1.563648
