19
Iteration:  1596charge 0 multiplicity 1
 C         1.630315         0.632964        -0.183593
 C         0.280136         0.328857         0.177369
 C        -0.892932         0.067881         0.145099
 C        -2.331792        -0.214153         0.422526
 C        -3.190417         0.976760        -0.152794
 O        -2.899037        -1.524346         0.053497
 C        -2.177161        -2.771567         0.114137
 C        -3.445596        -3.747787         0.075053
 O        -3.519687        -4.499471         1.029866
 H         2.062982        -0.311486        -0.387013
 H         1.603448         1.176967        -1.175698
 H         2.189246         1.205910         0.540441
 H        -2.420750        -0.165650         1.535568
 H        -2.784890         1.561398        -0.972752
 H        -4.132759         0.585026        -0.527316
 H        -3.624012         1.388226         0.829544
 H        -1.495574        -2.910005        -0.716563
 H        -1.784777        -3.008431         1.095833
 H        -4.251031        -3.642223        -0.783181
