19
Iteration:  3365
 C         1.417180        -0.843627        -0.497909
 C         0.011006        -0.705221        -0.040181
 C        -1.090304        -0.427510         0.461980
 C        -2.437581        -0.044941         0.871241
 C        -3.120815         1.272923         0.342501
 O        -3.504201        -0.916807         0.640458
 C        -3.324424        -2.352111         0.810663
 C        -2.765272        -3.054412        -0.516919
 O        -1.926226        -3.910254        -0.333816
 H         2.263391        -0.812129         0.209821
 H         1.524519        -1.774612        -1.027700
 H         1.913033        -0.217424        -1.357327
 H        -2.239223         0.040208         1.964595
 H        -2.352860         1.720225        -0.324542
 H        -3.895063         0.742909        -0.288973
 H        -3.514031         1.830808         1.188033
 H        -2.582838        -2.458794         1.595216
 H        -4.260780        -2.774180         1.228362
 H        -3.087951        -2.399365        -1.352406
