19
Iteration:  2655
 C         1.425243        -0.288122        -0.495532
 C         0.036437        -0.276826        -0.256725
 C        -1.069414        -0.291699         0.284174
 C        -2.373495         0.140386         0.671742
 C        -3.259748         1.079166        -0.172305
 O        -3.190677        -1.088334         0.820917
 C        -2.643728        -2.355218         1.078438
 C        -2.607955        -3.329754        -0.153566
 O        -2.962807        -4.473105        -0.141179
 H         1.423714        -0.386716        -1.520981
 H         1.915072         0.555055        -0.031482
 H         1.819646        -1.205055        -0.016461
 H        -2.216552         0.555680         1.676062
 H        -4.221198         0.891880         0.282605
 H        -2.958129         2.152320        -0.009418
 H        -3.210004         0.791499        -1.176953
 H        -1.647589        -2.172097         1.443812
 H        -3.215872        -2.757919         1.911967
 H        -2.185564        -2.794062        -0.984427
