19
Iteration:  1516
 C         1.543163         0.738511        -0.183376
 C         0.290850         0.121940         0.083221
 C        -0.907628         0.014082         0.060524
 C        -2.342762        -0.214133         0.337211
 C        -3.146644         1.059546         0.000155
 O        -2.756829        -1.450317        -0.265645
 C        -2.438347        -2.594767         0.563933
 C        -3.240001        -3.785836         0.175271
 O        -3.619946        -4.732121         0.888234
 H         1.780872         1.070851        -1.250279
 H         1.669584         1.692706         0.381508
 H         2.489929         0.228810         0.073756
 H        -2.284760        -0.440911         1.428800
 H        -3.919345         0.785470        -0.720004
 H        -3.443358         1.537549         0.947690
 H        -2.540516         1.721163        -0.597586
 H        -1.373501        -2.801323         0.503574
 H        -2.561582        -2.373509         1.629627
 H        -3.763817        -3.814286        -0.877005
