19
Iteration:  4902charge 0 multiplicity 1
 C         1.879676        -0.127493         0.386486
 C         0.453534        -0.212923         0.850820
 C        -0.780119        -0.253849         0.937918
 C        -2.219480        -0.419533         1.137021
 C        -3.005413         0.837000         1.123850
 O        -2.752901        -1.143436        -0.055610
 C        -2.524192        -2.486333        -0.026026
 C        -3.513470        -2.985425        -1.167828
 O        -4.023582        -4.103234        -1.172304
 H         2.637361        -0.811529         0.772171
 H         1.669475        -0.064189        -0.696692
 H         2.113439         0.869350         0.799402
 H        -2.455425        -1.068480         1.937877
 H        -2.585219         1.670646         1.619646
 H        -3.268274         1.017054         0.039526
 H        -4.020219         0.780806         1.449242
 H        -1.520111        -2.750530        -0.339297
 H        -2.832068        -2.997466         0.885498
 H        -3.678957        -2.121065        -1.852167
