19
Iteration:  3713charge 0 multiplicity 1
 C         1.453162        -0.679505        -0.364548
 C        -0.049295        -0.742109        -0.099267
 C        -1.233587        -0.569579         0.238524
 C        -2.494134        -0.229707         0.968434
 C        -2.684326         1.272275         0.765772
 O        -3.652409        -0.902889         0.414250
 C        -3.442146        -2.307117         0.570539
 C        -2.652186        -2.926183        -0.482392
 O        -2.023241        -3.956459        -0.364395
 H         1.797714         0.250041        -0.948886
 H         1.764780        -0.568241         0.693500
 H         1.919700        -1.560118        -0.812318
 H        -2.227928        -0.609376         1.971187
 H        -1.645332         1.557458         0.575753
 H        -3.187554         1.548436        -0.149495
 H        -3.078815         1.757604         1.721364
 H        -3.102288        -2.532375         1.603823
 H        -4.415388        -2.754844         0.721055
 H        -2.639136        -2.356388        -1.439179
