19
Iteration:  1866charge 0 multiplicity 1
 C         1.443404        -0.256448        -0.391515
 C         0.098503        -0.025150         0.036782
 C        -1.051686        -0.105973         0.373927
 C        -2.563319         0.106328         0.615139
 C        -3.132057         0.882229        -0.557879
 O        -3.328054        -1.130198         0.648155
 C        -2.617501        -2.280961         0.921510
 C        -2.941253        -3.428111        -0.039399
 O        -2.601538        -4.550695         0.172949
 H         1.542132        -1.318901        -0.643925
 H         1.697463         0.417427        -1.231543
 H         2.137240        -0.075632         0.427781
 H        -2.684436         0.543591         1.635277
 H        -4.063265         1.447460        -0.232641
 H        -2.332936         1.568491        -0.862398
 H        -3.477119         0.285086        -1.500098
 H        -1.490726        -2.207866         0.726354
 H        -2.714200        -2.597350         1.995073
 H        -3.432331        -3.085400        -1.011003
