19
Iteration:  3986
 C         1.014158        -1.373095        -0.375535
 C        -0.149519        -0.878057         0.161652
 C        -1.248246        -0.448073         0.406741
 C        -2.502212        -0.092079         1.056554
 C        -2.832897         1.416862         0.861693
 O        -3.622115        -0.868151         0.561873
 C        -3.225495        -2.296119         0.499228
 C        -2.422136        -2.686929        -0.693790
 O        -1.752904        -3.727990        -0.680895
 H         1.362920        -0.609863        -1.168916
 H         1.834854        -1.386356         0.457126
 H         0.916802        -2.419070        -0.857692
 H        -2.507712        -0.370631         2.102800
 H        -1.909694         2.058781         0.975980
 H        -3.239685         1.455103        -0.197496
 H        -3.751513         1.585058         1.384468
 H        -2.618469        -2.616698         1.385261
 H        -4.151648        -2.861830         0.425914
 H        -2.378263        -2.188240        -1.696961
