19
Iteration:   517
 C         1.669944         0.594826        -0.004802
 C         0.269999         0.187238         0.130587
 C        -0.939817         0.050335         0.123359
 C        -2.427454        -0.086387         0.143797
 C        -3.288379         0.723758        -0.787883
 O        -2.951776        -1.363981        -0.138325
 C        -2.344934        -2.423196         0.654628
 C        -3.202385        -3.713483         0.484735
 O        -3.350431        -4.736526         1.107039
 H         2.365400        -0.224390         0.263921
 H         1.806552         0.859663        -1.058158
 H         1.906862         1.319929         0.669030
 H        -2.622293         0.107080         1.237800
 H        -4.156123         1.135396        -0.324573
 H        -2.957012         1.636481        -1.288215
 H        -3.751293        -0.053090        -1.455670
 H        -1.302146        -2.745433         0.216005
 H        -2.280353        -2.095999         1.665400
 H        -3.881638        -3.559137        -0.413963
