19
Iteration:   626charge 0 multiplicity 1
 C         1.663007         0.615100        -0.255018
 C         0.255259         0.268451         0.097192
 C        -0.942599         0.012890         0.087170
 C        -2.391165        -0.239009         0.264237
 C        -2.994116         0.715679        -0.680831
 O        -2.951140        -1.524886        -0.148863
 C        -2.883517        -2.311091         0.950301
 C        -3.532648        -3.665010         0.630727
 O        -2.869932        -4.660680         0.726815
 H         1.899529         1.678695         0.096776
 H         2.417752         0.029708         0.364236
 H         1.859663         0.446485        -1.293506
 H        -2.631191        -0.076967         1.314054
 H        -4.001255         0.411020        -0.922401
 H        -3.017266         1.636829        -0.087764
 H        -2.303542         0.922038        -1.567823
 H        -1.897593        -2.546341         1.413863
 H        -3.493020        -1.864470         1.808113
 H        -4.636558        -3.667994         0.425740
