19
Iteration:  4952charge 0 multiplicity 1
 C         1.897986        -0.068341         0.504493
 C         0.400236        -0.238098         0.636847
 C        -0.804009        -0.385618         0.837012
 C        -2.242676        -0.450866         1.061071
 C        -2.972516         0.941133         1.367371
 O        -2.867328        -0.964724        -0.111897
 C        -2.477335        -2.441762        -0.204267
 C        -3.353822        -3.202401        -1.236548
 O        -4.104967        -4.125255        -1.017498
 H         2.092505         0.117600         1.580365
 H         2.167915        -1.120736         0.305952
 H         2.274865         0.805285        -0.082110
 H        -2.441107        -1.216717         1.919039
 H        -2.468745         1.366877         2.299050
 H        -2.743369         1.778571         0.624132
 H        -4.098200         0.798115         1.642836
 H        -1.388086        -2.590837        -0.553180
 H        -2.790425        -2.861321         0.801250
 H        -3.311894        -2.687231        -2.194001
