19
Iteration:  2345
 C         1.350798        -0.394457        -0.789491
 C        -0.020932        -0.772840        -0.243050
 C        -1.110985        -0.408754         0.199666
 C        -2.435385        -0.059470         0.716225
 C        -3.000873         1.287712         0.294377
 O        -3.446071        -0.968070         0.134456
 C        -3.601428        -2.315630         0.643688
 C        -2.449199        -3.236659         0.103389
 O        -1.935634        -4.191197         0.636871
 H         1.124215         0.423050        -1.537739
 H         1.886827        -0.025134         0.070129
 H         1.963662        -1.120891        -1.230470
 H        -2.377578        -0.238439         1.791807
 H        -4.084770         1.340412         0.517825
 H        -2.508508         2.237319         0.703457
 H        -2.959391         1.310362        -0.764427
 H        -3.812794        -2.398012         1.713295
 H        -4.592462        -2.491031         0.177036
 H        -2.147323        -2.903013        -0.945609
