19
Iteration:   203
 C         1.634598         0.485270        -0.217079
 C         0.235694         0.365234        -0.043967
 C        -0.946501         0.095662         0.113766
 C        -2.410001        -0.065992         0.150053
 C        -2.877250         0.656178        -1.069456
 O        -3.145851        -1.389995        -0.007428
 C        -2.527312        -2.468574         0.679748
 C        -3.480286        -3.640189         0.888521
 O        -3.134322        -4.777834         1.167428
 H         2.075774        -0.435757        -0.519840
 H         1.910065         1.209714        -0.978349
 H         2.153526         0.702916         0.747641
 H        -2.815457         0.353757         1.041467
 H        -2.123940         0.525415        -1.820756
 H        -3.890032         0.550725        -1.552084
 H        -2.732354         1.710524        -0.661862
 H        -1.500357        -2.779618         0.425755
 H        -2.419625        -2.100656         1.729288
 H        -4.592103        -3.413948         0.957595
