19
Iteration:  1187
 C         1.450555        -0.264208         0.123103
 C         0.070599         0.178630        -0.013594
 C        -1.122417         0.355615         0.316363
 C        -2.570312         0.118583         0.426619
 C        -3.349162         0.857908        -0.599784
 O        -3.024878        -1.250198         0.142946
 C        -2.164242        -2.358313         0.309318
 C        -3.148049        -3.557981         0.389144
 O        -2.796660        -4.705691         0.638367
 H         2.107965         0.518038        -0.249902
 H         1.703482        -0.573718         1.089266
 H         1.602959        -1.097401        -0.577302
 H        -2.961807         0.381313         1.453615
 H        -4.408238         0.636503        -0.375733
 H        -3.306054         1.943703        -0.493618
 H        -3.044980         0.483072        -1.609889
 H        -1.580123        -2.399673        -0.599547
 H        -1.585444        -2.387152         1.230124
 H        -4.237462        -3.385734         0.155626
