19
Iteration:   367charge 0 multiplicity 1
 C         1.604943         0.086721         0.182536
 C         0.127445         0.356459         0.017138
 C        -1.081960         0.134402        -0.008710
 C        -2.569780        -0.159663         0.111874
 C        -3.436299         0.785562        -0.641357
 O        -2.848138        -1.505390        -0.340415
 C        -2.113363        -2.524211         0.325169
 C        -3.205521        -3.613753         0.476855
 O        -3.148568        -4.250401         1.483274
 H         2.153264         0.999106         0.286075
 H         1.673786        -0.479539         1.120112
 H         2.124851        -0.614891        -0.551096
 H        -2.706284        -0.008705         1.156479
 H        -3.149941         0.831710        -1.637337
 H        -4.467184         0.419783        -0.660759
 H        -3.529092         1.790468        -0.209650
 H        -1.379990        -3.073186        -0.295108
 H        -1.516576        -2.193280         1.229329
 H        -4.020635        -3.574349        -0.343317
