19
Iteration:  2758charge 0 multiplicity 1
 C         1.449743        -0.241703        -0.643272
 C         0.021443        -0.488239        -0.228200
 C        -1.118854        -0.165708         0.250845
 C        -2.400620         0.055874         0.893766
 C        -3.008852         1.050792        -0.074194
 O        -3.406677        -1.031402         0.856721
 C        -2.902897        -2.352506         0.989750
 C        -2.783336        -3.258772        -0.251882
 O        -2.584802        -4.467087        -0.116483
 H         2.094400        -1.053505        -0.103174
 H         1.528631        -0.577775        -1.718093
 H         1.884000         0.682082        -0.300968
 H        -2.174946         0.321100         1.940899
 H        -4.087339         1.312369         0.132021
 H        -2.386613         1.981894         0.061487
 H        -3.017550         0.691438        -1.169920
 H        -1.897104        -2.293323         1.332165
 H        -3.320302        -2.777723         1.940329
 H        -2.703675        -2.723409        -1.269041
