19
Iteration:  1147charge 0 multiplicity 1
 C         1.397125        -0.232797        -0.055379
 C         0.030373        -0.065833         0.449517
 C        -1.126367         0.168159         0.202839
 C        -2.552157         0.153986         0.262675
 C        -3.441589         0.999814        -0.664264
 O        -3.023635        -1.232516         0.049665
 C        -2.218796        -2.250374         0.523266
 C        -3.105648        -3.567290         0.485387
 O        -2.661528        -4.707895         0.555844
 H         2.112540         0.529088         0.396777
 H         1.904692        -1.260352         0.164358
 H         1.385007        -0.117206        -1.156773
 H        -2.767184         0.406297         1.319929
 H        -4.299987         1.327699        -0.005966
 H        -2.831350         1.821983        -1.069795
 H        -3.956065         0.449300        -1.379646
 H        -1.283001        -2.554623        -0.077468
 H        -1.808495        -1.905811         1.528512
 H        -4.137646        -3.338709         0.080075
