19
Iteration:  2331
 C         1.285259        -0.507616        -0.716132
 C        -0.120152        -0.748966        -0.416959
 C        -1.174900        -0.418819         0.199585
 C        -2.495280        -0.083218         0.813835
 C        -2.999500         1.332263         0.301062
 O        -3.414621        -0.924366         0.122405
 C        -3.569489        -2.231002         0.569078
 C        -2.401933        -3.282872         0.155480
 O        -1.829519        -4.173769         0.657979
 H         1.461342         0.544898        -1.240780
 H         1.935253        -0.437749         0.206322
 H         1.670016        -1.224479        -1.494751
 H        -2.581259        -0.165170         1.930721
 H        -4.104662         1.321011         0.321119
 H        -2.592392         2.213891         1.003122
 H        -2.591745         1.474354        -0.719997
 H        -3.801992        -2.303606         1.623510
 H        -4.349918        -2.737302        -0.015464
 H        -2.257947        -3.043369        -1.037568
