19
Iteration:  1348
 C         1.632027         0.374146        -0.331380
 C         0.187310         0.276658         0.100795
 C        -0.997972         0.136046         0.434258
 C        -2.442919        -0.094103         0.468892
 C        -3.198335         1.073749        -0.382899
 O        -2.767608        -1.418148        -0.044097
 C        -2.709580        -2.479777         0.799574
 C        -3.351764        -3.754605         0.133033
 O        -3.066854        -4.839923         0.609123
 H         2.267249        -0.300304         0.328694
 H         1.788525        -0.076820        -1.378783
 H         2.106369         1.429510        -0.350613
 H        -2.731820        -0.054713         1.565563
 H        -2.383398         1.690103        -0.808162
 H        -3.559440         0.614464        -1.282027
 H        -3.869498         1.754194         0.204092
 H        -1.661950        -2.768015         1.023018
 H        -3.044961        -2.254178         1.841298
 H        -3.841227        -3.524245        -0.917763
