19
Iteration:  4745
 C         1.823495        -0.242450         0.516940
 C         0.383315        -0.306806         0.456658
 C        -0.787750        -0.402328         0.660223
 C        -2.224499        -0.261138         1.017091
 C        -2.697305         1.183667         1.196658
 O        -3.241215        -0.978643         0.140367
 C        -2.907830        -2.383157         0.178590
 C        -3.634022        -3.235270        -0.953788
 O        -3.316842        -4.309988        -1.425733
 H         2.254588         0.776578         0.808688
 H         2.072873        -0.990350         1.425884
 H         2.509297        -0.604730        -0.261584
 H        -2.432042        -0.805193         2.047755
 H        -1.856980         1.882112         1.485483
 H        -2.950462         1.627090         0.296612
 H        -3.535839         1.340923         1.897269
 H        -1.794922        -2.454958        -0.044460
 H        -3.080025        -2.891896         1.180871
 H        -4.600185        -2.701699        -1.285152
