19
Iteration:  2836
 C         1.234900        -0.709234        -0.715467
 C        -0.011150        -0.401159        -0.120858
 C        -1.024426        -0.016056         0.397328
 C        -2.405344         0.142317         0.859854
 C        -3.179194         1.207533         0.212251
 O        -3.329481        -0.907660         0.556556
 C        -2.962229        -2.285018         0.889982
 C        -2.679035        -3.338051        -0.185398
 O        -2.296414        -4.529581        -0.151917
 H         2.116420         0.010250        -0.424563
 H         1.590473        -1.743398        -0.466895
 H         1.175700        -0.596649        -1.835615
 H        -2.380901         0.207554         1.980044
 H        -4.154294         1.368705         0.725870
 H        -2.668513         2.295716         0.251549
 H        -3.365474         0.866433        -0.817648
 H        -2.126536        -2.391616         1.565400
 H        -3.789780        -2.512410         1.645788
 H        -2.907169        -2.920724        -1.228055
