19
Iteration:  4530
 C         1.673154        -0.626872         0.048691
 C         0.236136        -0.362772         0.437255
 C        -0.932548        -0.376698         0.835204
 C        -2.426251        -0.168133         1.147832
 C        -3.020942         1.314777         1.012537
 O        -3.055856        -0.991157         0.145675
 C        -2.908822        -2.354805         0.391755
 C        -2.913340        -3.098101        -0.974708
 O        -3.289895        -4.251293        -1.158990
 H         2.145167         0.004052        -0.717825
 H         2.181453        -0.418438         0.982958
 H         1.675033        -1.739129        -0.049905
 H        -2.544087        -0.567132         2.164615
 H        -2.577027         1.999628         1.782562
 H        -2.573702         1.853880         0.211512
 H        -4.122291         1.213050         0.955249
 H        -1.797136        -2.549210         0.632315
 H        -3.616898        -2.675660         1.204804
 H        -2.598834        -2.376849        -1.862211
