19
Iteration:    74charge 0 multiplicity 1
 C         1.711187         0.239653        -0.172176
 C         0.268829         0.330588        -0.082926
 C        -0.922405         0.251421        -0.212016
 C        -2.332053        -0.084452        -0.011233
 C        -3.166991         0.619620        -1.043198
 O        -2.842417        -1.539213        -0.087415
 C        -2.763970        -2.268320         1.187731
 C        -3.508613        -3.557725         1.025271
 O        -3.042699        -4.663648         1.015110
 H         2.197628         1.199282        -0.102381
 H         2.101919        -0.449331         0.625962
 H         2.105096        -0.295349        -1.121812
 H        -2.694930         0.224106         1.036310
 H        -4.210530         0.412933        -0.962744
 H        -2.897880         1.729620        -1.085957
 H        -2.836651         0.257434        -2.066913
 H        -1.723878        -2.246364         1.575801
 H        -3.491926        -1.757462         1.908032
 H        -4.667515        -3.425385         0.987549
