19
Iteration:  4934charge 0 multiplicity 1
 C         1.861552        -0.101863         0.522607
 C         0.436585        -0.326372         0.637443
 C        -0.765415        -0.244729         0.939831
 C        -2.244730        -0.343462         1.098665
 C        -2.993485         0.930389         1.342554
 O        -2.784542        -1.116783        -0.115750
 C        -2.558073        -2.462774        -0.168014
 C        -3.425790        -3.115577        -1.263326
 O        -4.065735        -4.106789        -1.038455
 H         2.486453        -0.142103         1.403210
 H         2.319062        -0.657734        -0.345312
 H         1.722252         0.938951         0.168974
 H        -2.526756        -1.022927         1.893739
 H        -2.527635         1.641778         1.951356
 H        -2.955970         1.450562         0.341689
 H        -3.916497         0.557047         1.704303
 H        -1.532183        -2.599188        -0.518719
 H        -2.681764        -3.058933         0.796129
 H        -3.395203        -2.760812        -2.371519
