19
Iteration:   294charge 0 multiplicity 1
 C         1.621048         0.307900         0.076634
 C         0.160364         0.085335         0.066014
 C        -1.028248        -0.062268        -0.064582
 C        -2.478180        -0.111155         0.008840
 C        -3.373826         0.847342        -0.718089
 O        -2.838969        -1.451403        -0.366177
 C        -2.288489        -2.516140         0.467523
 C        -3.355698        -3.492469         0.703701
 O        -3.061505        -4.431211         1.407118
 H         1.847815         0.403234         1.157210
 H         2.210566        -0.533658        -0.353306
 H         2.032063         1.225325        -0.429540
 H        -2.669548         0.126829         1.115165
 H        -4.063246         1.466133         0.043784
 H        -2.944998         1.653634        -1.358052
 H        -4.137038         0.228037        -1.336266
 H        -1.306773        -2.857921         0.095946
 H        -2.107614        -2.186149         1.513202
 H        -4.390401        -3.332137         0.352356
