19
Iteration:   261
 C         1.631069         0.446644        -0.016536
 C         0.213788         0.041129         0.037967
 C        -1.024415        -0.033796        -0.036840
 C        -2.499430        -0.160966         0.055628
 C        -3.131133         0.831371        -0.859319
 O        -3.060121        -1.415344        -0.205698
 C        -2.316314        -2.443928         0.553537
 C        -3.333800        -3.500185         0.811972
 O        -3.118805        -4.594436         1.313925
 H         2.094281        -0.060040         0.827469
 H         2.193672         0.081068        -0.901529
 H         1.729973         1.564334         0.127840
 H        -2.757372         0.205733         1.040321
 H        -4.188892         0.358193        -0.919390
 H        -3.094224         1.887603        -0.517903
 H        -2.652259         0.705179        -1.897659
 H        -1.462279        -2.874921         0.010831
 H        -2.039863        -1.996779         1.498069
 H        -4.302017        -3.108977         0.388523
