19
Iteration:  4027
 C         1.206911        -1.296079        -0.370844
 C        -0.141152        -0.902414        -0.014706
 C        -1.202825        -0.647661         0.578270
 C        -2.474816        -0.165157         1.068372
 C        -2.759634         1.405893         0.680487
 O        -3.731722        -0.930190         0.691987
 C        -3.444118        -2.372931         0.511524
 C        -2.474303        -2.575419        -0.661591
 O        -1.717545        -3.568886        -0.721805
 H         1.484422        -1.441110        -1.400894
 H         1.840250        -0.515360         0.001461
 H         1.663927        -2.242638         0.030761
 H        -2.230182        -0.158310         2.158919
 H        -2.256687         2.084362         1.352491
 H        -2.558114         1.715334        -0.349688
 H        -3.783528         1.647007         0.838766
 H        -3.177963        -2.906339         1.415924
 H        -4.373538        -2.888888         0.226398
 H        -2.782922        -1.849695        -1.389733
