19
Iteration:  4347
 C         1.539320        -0.533917         0.018222
 C         0.136178        -0.464741         0.373743
 C        -0.982308        -0.446243         0.814291
 C        -2.360070        -0.284073         1.092530
 C        -2.646599         1.165187         0.821288
 O        -3.220621        -1.013449         0.240806
 C        -3.360952        -2.407781         0.397226
 C        -2.923603        -2.905955        -0.876477
 O        -2.823685        -4.088187        -1.005288
 H         1.861339        -1.420713        -0.528274
 H         1.895734         0.357849        -0.549618
 H         2.091353        -0.651795         0.939854
 H        -2.538387        -0.491977         2.138819
 H        -2.338680         1.873594         1.628984
 H        -2.040870         1.567105         0.007579
 H        -3.768746         1.402797         0.745212
 H        -2.901936        -2.990054         1.162614
 H        -4.477760        -2.514921         0.546313
 H        -2.755882        -2.181041        -1.665955
