19
Iteration:   269charge 0 multiplicity 1
 C         1.613304         0.407653         0.024978
 C         0.194838         0.033760         0.052349
 C        -1.001735        -0.054931        -0.066810
 C        -2.470233        -0.163577         0.084224
 C        -3.194625         0.745841        -0.805364
 O        -3.039265        -1.439764        -0.271590
 C        -2.318420        -2.377719         0.542047
 C        -3.323812        -3.462087         0.797906
 O        -3.112456        -4.530252         1.311308
 H         2.091560         0.091636         0.915238
 H         2.120885         0.024924        -0.858313
 H         1.724247         1.523482        -0.086144
 H        -2.623606         0.077840         1.238809
 H        -4.283069         0.712033        -0.741452
 H        -2.908915         1.793225        -0.604600
 H        -2.925284         0.446201        -1.857085
 H        -1.457195        -2.726180        -0.078989
 H        -1.867120        -1.946575         1.495775
 H        -4.300337        -3.254729         0.332690
