19
Iteration:  4219
 C         1.280977        -1.186608        -0.034748
 C         0.021432        -0.612885         0.248130
 C        -1.045501        -0.082813         0.523976
 C        -2.376592        -0.009563         1.075743
 C        -3.020690         1.333885         0.957473
 O        -3.278564        -0.963149         0.410860
 C        -3.111283        -2.371203         0.503404
 C        -2.478125        -2.910427        -0.694535
 O        -2.602431        -4.049978        -1.167895
 H         2.132207        -0.464494        -0.017596
 H         1.413075        -2.165027         0.545864
 H         1.158507        -1.539464        -1.064606
 H        -2.286697        -0.113957         2.210145
 H        -2.633270         1.883230         1.770748
 H        -2.766530         1.889535         0.051044
 H        -4.124948         1.386518         0.901561
 H        -2.765745        -2.765508         1.450935
 H        -4.026839        -2.876131         0.546208
 H        -2.095987        -2.140543        -1.355559
