19
Iteration:  2761charge 0 multiplicity 1
 C         1.445278        -0.266372        -0.655659
 C         0.006529        -0.464052        -0.216484
 C        -1.114589        -0.203330         0.228773
 C        -2.420210         0.058985         0.935753
 C        -3.001620         1.059262        -0.071233
 O        -3.434103        -1.008919         0.835635
 C        -2.894534        -2.358794         0.983893
 C        -2.778346        -3.259853        -0.223802
 O        -2.570950        -4.469773        -0.132640
 H         2.138062        -1.001223        -0.105323
 H         1.566614        -0.656553        -1.637466
 H         1.938791         0.720283        -0.392920
 H        -2.132504         0.319909         1.980909
 H        -4.049331         1.281780         0.039249
 H        -2.437227         2.066402         0.054553
 H        -2.951482         0.738485        -1.071911
 H        -1.844008        -2.257374         1.312992
 H        -3.226279        -2.805720         1.887330
 H        -2.699449        -2.753196        -1.159952
