19
Iteration:   103
 C         1.717785         0.317031        -0.144109
 C         0.233324         0.486806        -0.244917
 C        -0.851935        -0.017263         0.007342
 C        -2.372368        -0.117351         0.065930
 C        -3.159416         0.555606        -1.102198
 O        -2.832308        -1.480074        -0.058179
 C        -2.732564        -2.338699         1.141177
 C        -3.587678        -3.510269         1.075814
 O        -3.043131        -4.590266         0.916015
 H         2.341168         1.026005        -0.726088
 H         2.091189         0.315977         0.879730
 H         1.966403        -0.629424        -0.553599
 H        -2.724622         0.330460         0.970998
 H        -3.948802         1.240784        -0.738269
 H        -2.460385         1.129123        -1.770820
 H        -3.601277        -0.231158        -1.727697
 H        -1.693397        -2.557646         1.337346
 H        -3.126500        -1.814803         2.004116
 H        -4.653271        -3.417313         0.945027
