19
Iteration:    73
 C         1.717150         0.237797        -0.170911
 C         0.265495         0.320594        -0.081627
 C        -0.925173         0.247193        -0.213340
 C        -2.335519        -0.078371        -0.011782
 C        -3.172995         0.623583        -1.049353
 O        -2.835567        -1.537039        -0.085123
 C        -2.767089        -2.276119         1.186694
 C        -3.503800        -3.552126         1.028898
 O        -3.041526        -4.664990         1.017119
 H         2.188703         1.212512        -0.085414
 H         2.116050        -0.457759         0.607729
 H         2.094515        -0.273380        -1.130224
 H        -2.700526         0.230905         1.042878
 H        -4.226017         0.404853        -0.983271
 H        -2.917491         1.754990        -1.057780
 H        -2.828119         0.293626        -2.083919
 H        -1.737052        -2.267667         1.591279
 H        -3.494451        -1.757194         1.898766
 H        -4.647324        -3.406516         0.959789
