19
Iteration:  1482charge 0 multiplicity 1
 C         1.791941         0.709693        -0.272054
 C         0.395188         0.442738         0.123061
 C        -0.788944         0.001627         0.130061
 C        -2.299500        -0.261784         0.407270
 C        -3.266444         0.907719        -0.151484
 O        -2.859970        -1.432344        -0.158420
 C        -2.670495        -2.585781         0.702168
 C        -3.274547        -3.798628         0.092337
 O        -3.543355        -4.754381         0.796758
 H         1.854271         1.524778        -1.086175
 H         2.352816         1.038433         0.615673
 H         2.230358        -0.257829        -0.644443
 H        -2.452096        -0.280703         1.527539
 H        -4.264202         0.554126         0.129023
 H        -3.321203         1.809128         0.474370
 H        -3.168922         1.096720        -1.169027
 H        -1.605922        -2.776640         0.788371
 H        -3.059282        -2.350208         1.698538
 H        -3.622894        -3.591731        -0.997266
