19
Iteration:   746
 C         1.551120         0.031836        -0.132047
 C         0.108439         0.064336         0.099003
 C        -1.097082         0.057392         0.037132
 C        -2.536394        -0.025185         0.305391
 C        -3.250061         0.896289        -0.722665
 O        -3.194176        -1.307166         0.241114
 C        -2.432458        -2.246303         0.870514
 C        -2.743164        -3.617765         0.217450
 O        -3.054339        -4.652072         0.779270
 H         1.872329        -0.817001        -0.846916
 H         1.851163         1.020051        -0.658651
 H         2.047516        -0.114851         0.823813
 H        -2.670891         0.467958         1.303026
 H        -4.339570         0.674609        -0.847511
 H        -3.314183         1.903460        -0.313950
 H        -2.812608         0.892796        -1.752780
 H        -1.373552        -2.126368         0.721396
 H        -2.528239        -2.193040         1.992282
 H        -2.828889        -3.514145        -0.899446
