19
Iteration:   497
 C         1.628766         0.491003        -0.005462
 C         0.203855         0.239928         0.173567
 C        -1.036074         0.222042         0.082881
 C        -2.530069        -0.099755         0.197619
 C        -3.238932         0.911332        -0.798252
 O        -2.863989        -1.533528        -0.143770
 C        -2.300699        -2.568420         0.575152
 C        -3.214547        -3.791094         0.375952
 O        -3.308491        -4.593238         1.252233
 H         2.195732        -0.414457        -0.188524
 H         1.765484         1.147814        -0.863668
 H         2.123771         0.894748         0.885373
 H        -2.810154         0.075041         1.272468
 H        -4.022385         1.464780        -0.356002
 H        -2.495466         1.635609        -1.137308
 H        -3.653205         0.345276        -1.662352
 H        -1.423905        -2.738120        -0.050936
 H        -2.108163        -2.507979         1.623654
 H        -3.825747        -3.962693        -0.525840
