19
Iteration:  3552charge 0 multiplicity 1
 C         1.025266        -0.936452        -0.614165
 C        -0.142285        -0.454219         0.050119
 C        -1.148422        -0.348352         0.724644
 C        -2.528456         0.071445         1.027338
 C        -2.982212         1.413517         0.686564
 O        -3.247934        -0.911783         0.208506
 C        -3.007499        -2.290056         0.575864
 C        -2.235068        -3.122528        -0.423152
 O        -2.385254        -4.323364        -0.368579
 H         0.781138        -1.950965        -0.888664
 H         1.016452        -0.444240        -1.555737
 H         2.027565        -0.630766        -0.218618
 H        -2.806420        -0.195653         2.066020
 H        -2.206607         2.165579         0.686703
 H        -3.296348         1.414599        -0.322685
 H        -3.841662         1.751281         1.316995
 H        -2.608806        -2.392448         1.649434
 H        -4.072992        -2.682649         0.469024
 H        -1.479589        -2.477475        -1.059094
