19
Iteration:  1972charge 0 multiplicity 1
 C         1.405491        -0.752411        -0.239798
 C         0.035892        -0.183777        -0.173493
 C        -1.180393        -0.114831         0.044343
 C        -2.529340         0.162144         0.442198
 C        -3.382181         1.013614        -0.426369
 O        -3.368226        -1.006183         0.858292
 C        -2.905793        -2.357274         1.193071
 C        -2.588326        -3.186511        -0.089296
 O        -2.171059        -4.359293        -0.026440
 H         2.002283        -0.528631         0.767284
 H         1.271262        -1.836873        -0.224671
 H         1.957227        -0.432808        -1.139197
 H        -2.370363         0.594983         1.468223
 H        -4.314353         1.203756         0.102672
 H        -2.974443         1.959581        -0.409473
 H        -3.556490         0.619629        -1.452640
 H        -1.989143        -2.373851         1.781312
 H        -3.690009        -2.823997         1.773995
 H        -2.812651        -2.706172        -1.057768
