19
Iteration:  4008charge 0 multiplicity 1
 C         1.138928        -1.277570        -0.344317
 C        -0.208886        -0.963243         0.073565
 C        -1.323446        -0.556321         0.381780
 C        -2.520069        -0.095417         1.124372
 C        -2.778716         1.299516         0.772709
 O        -3.624525        -0.903620         0.664567
 C        -3.340393        -2.213962         0.517514
 C        -2.452641        -2.646696        -0.690500
 O        -1.700591        -3.631352        -0.702403
 H         1.352026        -1.105157        -1.459419
 H         2.024741        -0.856070         0.284837
 H         1.254867        -2.432235        -0.324823
 H        -2.428451        -0.147804         2.210900
 H        -1.906799         1.857179         1.248343
 H        -2.660131         1.397110        -0.350847
 H        -3.819093         1.599853         0.901150
 H        -2.878044        -2.774682         1.343731
 H        -4.314494        -2.676712         0.309501
 H        -2.442611        -2.039807        -1.671359
