19
Iteration:  3132
 C         1.207493        -1.071558        -0.698630
 C        -0.174082        -0.816217        -0.196187
 C        -1.255137        -0.311825         0.129698
 C        -2.558832        -0.123788         0.829883
 C        -2.938915         1.334224         0.586935
 O        -3.642165        -0.901998         0.523902
 C        -3.251124        -2.271268         0.772784
 C        -2.416761        -2.926878        -0.227418
 O        -1.733868        -3.890909        -0.056332
 H         1.838445        -0.145630        -0.424415
 H         1.761871        -1.862009        -0.206980
 H         1.372893        -1.171092        -1.790058
 H        -2.273431        -0.410609         1.858074
 H        -4.007980         1.558894         0.763817
 H        -2.342699         1.888477         1.254642
 H        -2.739061         1.710824        -0.469232
 H        -3.087988        -2.541197         1.794589
 H        -4.247392        -2.707108         0.559185
 H        -2.450564        -2.578838        -1.266964
