19
Iteration:  2479
 C         1.551275        -0.399449        -0.675979
 C         0.175392        -0.120571        -0.104035
 C        -0.992602        -0.247501         0.048257
 C        -2.544431        -0.075620         0.587938
 C        -3.222396         1.340855         0.292986
 O        -3.370139        -1.183312         0.165795
 C        -2.996012        -2.320159         1.030935
 C        -2.518140        -3.356972        -0.001760
 O        -2.706199        -4.493966         0.323987
 H         2.028184        -1.222790        -0.245204
 H         1.415525        -0.684836        -1.714896
 H         2.141857         0.570551        -0.703575
 H        -2.445429        -0.175188         1.690575
 H        -4.277524         1.196895         0.445683
 H        -2.763385         2.029055         0.974319
 H        -3.053967         1.612518        -0.775400
 H        -2.165153        -2.035658         1.659361
 H        -3.932057        -2.572817         1.490210
 H        -2.022581        -2.948211        -0.877871
