19
Iteration:   823charge 0 multiplicity 1
 C         1.483939        -0.293699         0.098800
 C         0.050559         0.185872        -0.177926
 C        -1.174707         0.136939        -0.200095
 C        -2.504936         0.022122         0.279587
 C        -3.492869         0.854285        -0.493858
 O        -3.073608        -1.272215         0.098992
 C        -2.390953        -2.161005         0.983034
 C        -2.510478        -3.551061         0.297426
 O        -3.065435        -4.581900         0.674994
 H         1.391377        -0.969993         1.006754
 H         1.764943        -0.953933        -0.799845
 H         2.332329         0.396269         0.206006
 H        -2.378382         0.297970         1.381425
 H        -4.595877         0.814927        -0.200354
 H        -3.180417         1.922405        -0.519906
 H        -3.388302         0.360306        -1.437491
 H        -1.234920        -1.973575         1.137263
 H        -2.953087        -2.207080         1.996033
 H        -1.925854        -3.553926        -0.674320
