19
Iteration:  2023
 C         1.150147        -0.878060        -0.416131
 C        -0.198751        -0.679192        -0.002881
 C        -1.251475        -0.204106         0.312000
 C        -2.606697         0.110995         0.631887
 C        -3.280873         1.105589        -0.402545
 O        -3.467210        -1.028148         0.653652
 C        -2.806598        -2.186203         1.000070
 C        -2.340578        -3.021633        -0.117366
 O        -1.974175        -4.136981         0.071396
 H         1.616043         0.067457        -0.424031
 H         1.788883        -1.476992         0.265634
 H         1.198255        -1.439796        -1.375395
 H        -2.626437         0.466177         1.686419
 H        -3.847201         1.916290         0.134634
 H        -2.458650         1.654506        -0.956061
 H        -3.954268         0.587284        -1.086794
 H        -1.906236        -1.944712         1.603692
 H        -3.490594        -2.873523         1.606409
 H        -2.084364        -2.486474        -1.180629
