19
Iteration:  1123
 C         1.430339        -0.197183         0.005851
 C         0.011423        -0.100345         0.221758
 C        -1.193967         0.090965         0.098271
 C        -2.639722         0.036566         0.321824
 C        -3.240492         1.116333        -0.602031
 O        -3.091495        -1.304217        -0.044910
 C        -2.371008        -2.263032         0.699261
 C        -3.057066        -3.559425         0.483093
 O        -2.551473        -4.627194         0.539321
 H         2.083288         0.244363         0.802849
 H         1.878781        -1.131875        -0.418711
 H         1.439859         0.564931        -0.848102
 H        -2.978257         0.232721         1.340305
 H        -4.026667         1.621654        -0.031148
 H        -2.447316         1.785520        -0.949322
 H        -3.859208         0.711802        -1.395667
 H        -1.276463        -2.347514         0.511568
 H        -2.472263        -2.123855         1.842538
 H        -4.175489        -3.368391         0.423344
