19
Iteration:  1066charge 0 multiplicity 1
 C         1.576993        -0.054306        -0.046038
 C         0.199371         0.062311        -0.020317
 C        -1.040502         0.061773        -0.092714
 C        -2.524961        -0.009793         0.353041
 C        -3.191619         1.028382        -0.547573
 O        -3.139523        -1.221160         0.023780
 C        -3.028487        -2.336189         1.017895
 C        -3.156608        -3.714027         0.363086
 O        -2.375095        -4.582145         0.568726
 H         1.871471        -0.938980         0.549348
 H         1.914505        -0.175177        -1.047941
 H         2.092916         0.858260         0.420129
 H        -2.621515         0.137472         1.425631
 H        -4.201347         1.241962        -0.246134
 H        -2.600153         1.948519        -0.537081
 H        -3.079860         0.543721        -1.586221
 H        -2.035747        -2.372904         1.385385
 H        -3.767180        -2.121738         1.817082
 H        -4.189175        -3.943698        -0.068691
