19
Iteration:  3813
 C         1.269329        -0.985695        -0.563493
 C         0.024208        -0.670536         0.041731
 C        -1.119575        -0.562537         0.488648
 C        -2.475800        -0.104869         1.142697
 C        -2.898338         1.370413         0.807840
 O        -3.565320        -0.839448         0.431099
 C        -3.374162        -2.244278         0.470529
 C        -2.501307        -2.921058        -0.546691
 O        -1.975394        -4.034970        -0.480558
 H         1.500593        -2.007167        -0.972781
 H         1.219054        -0.380330        -1.498585
 H         1.952726        -0.665170         0.222261
 H        -2.574203        -0.406739         2.183413
 H        -2.469384         2.065451         1.561444
 H        -2.639797         1.605036        -0.280353
 H        -3.965072         1.406195         1.011437
 H        -3.462054        -2.546928         1.555358
 H        -4.407014        -2.574466         0.286000
 H        -2.431147        -2.279562        -1.464830
