19
Iteration:  4580
 C         1.484482        -0.632794         0.005860
 C         0.152464        -0.515099         0.685661
 C        -0.998849        -0.261347         0.999609
 C        -2.430367        -0.116939         1.241429
 C        -2.986397         1.333355         0.934174
 O        -2.978249        -1.015031         0.127595
 C        -2.528525        -2.436303         0.252618
 C        -2.900966        -3.089029        -1.048432
 O        -3.445395        -4.168894        -1.144932
 H         1.088369        -1.071481        -0.956445
 H         1.864521         0.365063        -0.258123
 H         2.160797        -1.333201         0.471728
 H        -2.676717        -0.496028         2.251981
 H        -2.305077         2.115550         1.399572
 H        -2.739032         1.547691        -0.165462
 H        -4.047138         1.260327         1.137093
 H        -1.378035        -2.448730         0.441530
 H        -3.122728        -3.005682         1.005180
 H        -2.443217        -2.575492        -2.012892
