19
Iteration:  1330charge 0 multiplicity 1
 C         1.491443         0.315388        -0.214063
 C         0.106535         0.251030         0.041942
 C        -1.055792         0.080556         0.262825
 C        -2.466735        -0.051593         0.422627
 C        -2.992797         1.126590        -0.316712
 O        -2.826564        -1.356511        -0.169225
 C        -2.610600        -2.516567         0.822336
 C        -3.222296        -3.749884         0.214607
 O        -3.052331        -4.880897         0.628237
 H         1.988364        -0.526774         0.272514
 H         1.602760         0.360203        -1.243896
 H         1.809162         1.244095         0.218350
 H        -2.802181        -0.015228         1.445508
 H        -2.293891         1.839319        -0.820967
 H        -3.936076         0.909540        -0.887585
 H        -3.304397         1.803188         0.452360
 H        -1.510534        -2.615247         1.004133
 H        -3.259539        -2.468872         1.722140
 H        -4.079405        -3.435532        -0.388931
