19
Iteration:   822charge 0 multiplicity 1
 C         1.490067        -0.291826         0.099509
 C         0.047759         0.170109        -0.184209
 C        -1.171511         0.138034        -0.197821
 C        -2.505849         0.023959         0.280049
 C        -3.494392         0.854691        -0.490162
 O        -3.073353        -1.277918         0.101750
 C        -2.390788        -2.154396         0.977939
 C        -2.514553        -3.552522         0.302014
 O        -3.064045        -4.574753         0.672538
 H         1.406890        -0.970914         1.003394
 H         1.800166        -0.935189        -0.800499
 H         2.289999         0.425812         0.239719
 H        -2.406971         0.280473         1.385862
 H        -4.604818         0.829692        -0.228603
 H        -3.223236         1.928100        -0.493521
 H        -3.368849         0.342384        -1.465482
 H        -1.225541        -1.962356         1.133623
 H        -2.927367        -2.207798         2.005076
 H        -1.936717        -3.555373        -0.692960
