19
Iteration:  4528
 C         1.688444        -0.633273         0.057134
 C         0.244870        -0.345455         0.439149
 C        -0.943271        -0.379759         0.811685
 C        -2.429154        -0.163395         1.156635
 C        -3.025282         1.298951         0.999505
 O        -3.047899        -0.987561         0.150902
 C        -2.929482        -2.360414         0.390788
 C        -2.928014        -3.095677        -0.964565
 O        -3.279091        -4.258870        -1.164656
 H         2.198267         0.046232        -0.693020
 H         2.234970        -0.473382         0.969624
 H         1.697708        -1.730670        -0.125445
 H        -2.500507        -0.543070         2.242270
 H        -2.556471         1.971950         1.851405
 H        -2.590617         1.958237         0.221713
 H        -4.131259         1.304732         0.978087
 H        -1.884886        -2.488753         0.601435
 H        -3.637091        -2.743479         1.167059
 H        -2.607380        -2.417948        -1.803985
