19
Iteration:  1107charge 0 multiplicity 1
 C         1.518197        -0.095476        -0.011584
 C         0.027492        -0.066916        -0.023562
 C        -1.158290         0.000925         0.263049
 C        -2.631594         0.019395         0.266162
 C        -3.255131         1.175600        -0.563373
 O        -3.116719        -1.277840        -0.089626
 C        -2.525818        -2.242936         0.826003
 C        -3.134762        -3.643156         0.526714
 O        -2.464535        -4.648158         0.519097
 H         1.761012        -0.309838         1.029479
 H         1.751350        -1.081254        -0.415424
 H         2.166477         0.645433        -0.455866
 H        -2.918741         0.229495         1.341985
 H        -4.063533         1.789013        -0.093068
 H        -2.412843         1.742390        -1.008689
 H        -3.692251         0.774723        -1.519072
 H        -1.448836        -2.312920         0.673144
 H        -2.596273        -2.013360         1.916501
 H        -4.175059        -3.640960         0.179551
