19
Iteration:  2864charge 0 multiplicity 1
 C         1.254122        -0.832373        -0.744781
 C        -0.037768        -0.438446        -0.176744
 C        -1.107986        -0.100281         0.373306
 C        -2.552258         0.135205         0.908600
 C        -3.272941         1.447465         0.350768
 O        -3.251343        -1.042673         0.493166
 C        -2.885163        -2.403057         0.770754
 C        -2.576969        -3.248077        -0.330190
 O        -2.286073        -4.334191         0.059595
 H         1.970202        -0.086970        -0.884280
 H         1.837278        -1.529901        -0.066416
 H         1.253314        -1.514729        -1.601222
 H        -2.466713         0.158553         2.004653
 H        -4.101923         1.798570         0.944920
 H        -2.615080         2.223534         0.320944
 H        -3.509600         1.348443        -0.738507
 H        -2.000580        -2.614832         1.453775
 H        -3.768801        -2.680263         1.271487
 H        -2.695585        -3.001541        -1.444532
