19
Iteration:  3274
 C         0.998257        -1.207289        -0.638040
 C        -0.263664        -0.700680        -0.018496
 C        -1.248042        -0.252883         0.523811
 C        -2.545284         0.095434         0.964155
 C        -3.123596         1.415709         0.476704
 O        -3.408986        -0.954585         0.400175
 C        -2.970958        -2.240172         0.702374
 C        -2.183154        -2.918369        -0.366335
 O        -1.988402        -4.129887        -0.264096
 H         0.858729        -2.229164        -1.152043
 H         1.299915        -0.401778        -1.320304
 H         1.665206        -1.322161         0.231202
 H        -2.582887         0.029058         2.095603
 H        -2.312269         2.056446         0.130424
 H        -3.760443         1.303343        -0.402593
 H        -3.613965         2.042887         1.241745
 H        -2.343933        -2.397823         1.670047
 H        -3.815598        -2.907604         0.855673
 H        -1.838421        -2.320292        -1.342993
