19
Iteration:  2946charge 0 multiplicity 1
 C         1.173924        -1.046271        -0.666922
 C        -0.133846        -0.552579        -0.373032
 C        -1.146476        -0.092033         0.154940
 C        -2.410765         0.068367         0.867931
 C        -3.185851         1.293542         0.567052
 O        -3.473344        -0.896725         0.472075
 C        -3.207689        -2.221546         0.795870
 C        -2.186326        -3.078728        -0.134815
 O        -2.094412        -4.315346        -0.060403
 H         1.161676        -1.488914        -1.699888
 H         1.897704        -0.243183        -0.574079
 H         1.426199        -1.827804         0.006389
 H        -2.194498        -0.051882         1.940152
 H        -4.238033         1.077356         0.858880
 H        -2.751154         2.144751         1.200548
 H        -3.218964         1.537083        -0.491839
 H        -2.832011        -2.363758         1.810058
 H        -4.246510        -2.636940         0.604510
 H        -1.596641        -2.401380        -0.861093
