19
Iteration:   321charge 0 multiplicity 1
 C         1.649485         0.164307         0.175600
 C         0.185054         0.203421        -0.031337
 C        -1.053291         0.323012        -0.086107
 C        -2.544854        -0.151713         0.039765
 C        -3.406792         0.936154        -0.649675
 O        -2.791193        -1.438414        -0.530110
 C        -2.312666        -2.513229         0.390271
 C        -3.249375        -3.646776         0.756402
 O        -3.160770        -4.578111         1.551666
 H         1.948358         0.778575         1.080431
 H         2.026970        -0.877476         0.254427
 H         2.234666         0.605452        -0.635485
 H        -2.775938        -0.132373         1.081270
 H        -3.084261         1.904778        -0.314917
 H        -3.384824         0.951326        -1.749517
 H        -4.438219         0.834663        -0.408358
 H        -1.445290        -2.944330        -0.126428
 H        -1.796725        -2.090207         1.257249
 H        -4.122802        -3.769526         0.015611
