19
Iteration:   918
 C         1.426854        -0.092039        -0.383504
 C         0.067373        -0.165927         0.192726
 C        -1.148139        -0.064093         0.446144
 C        -2.677179        -0.015733         0.359127
 C        -3.181961         1.077371        -0.639847
 O        -3.049957        -1.317677        -0.089657
 C        -2.772966        -2.215974         0.904874
 C        -2.555852        -3.515907         0.173678
 O        -2.756346        -4.496073         0.847850
 H         1.650969         0.957714        -0.597998
 H         2.152194        -0.467906         0.377816
 H         1.517936        -0.793331        -1.219939
 H        -3.267538         0.102055         1.288091
 H        -4.103935         1.658371        -0.243331
 H        -2.300055         1.587199        -1.070235
 H        -3.557188         0.485512        -1.553278
 H        -1.986647        -2.018934         1.657685
 H        -3.724037        -2.333207         1.426236
 H        -2.227841        -3.471375        -0.891206
