19
Iteration:  4443charge 0 multiplicity 1
 C         1.742646        -0.458697         0.255048
 C         0.246544        -0.386386         0.246520
 C        -0.902402        -0.544647         0.643367
 C        -2.343768        -0.252594         0.965570
 C        -2.768950         1.210676         1.082018
 O        -3.265920        -0.884006         0.169288
 C        -3.212662        -2.298580         0.388795
 C        -3.129942        -3.077890        -0.935263
 O        -2.976743        -4.268323        -1.064336
 H         2.122879        -0.166632         1.256328
 H         2.083160        -1.469894        -0.053091
 H         2.257035         0.323788        -0.388171
 H        -2.291763        -0.705066         2.009646
 H        -2.066347         2.051677         1.243962
 H        -3.235668         1.391114         0.108643
 H        -3.540464         1.259470         1.886672
 H        -2.534489        -2.592268         1.311934
 H        -4.155269        -2.757837         0.823550
 H        -3.199062        -2.405879        -1.763742
