19
Iteration:  4356charge 0 multiplicity 1
 C         1.585994        -0.478985         0.053398
 C         0.183390        -0.485416         0.376971
 C        -0.951869        -0.471259         0.755083
 C        -2.337544        -0.271172         1.120943
 C        -2.631445         1.172067         0.843056
 O        -3.264403        -0.996058         0.234043
 C        -3.426973        -2.411070         0.413447
 C        -2.971241        -2.916458        -0.914140
 O        -2.829207        -4.121676        -0.997496
 H         1.830238        -1.487951        -0.370688
 H         1.880486         0.243069        -0.736397
 H         2.270366        -0.276801         0.967901
 H        -2.778141        -0.463259         2.154619
 H        -2.330423         1.595091         1.879253
 H        -2.102466         1.541122        -0.022212
 H        -3.712716         1.427449         0.585511
 H        -2.681800        -2.530393         1.134737
 H        -4.373365        -2.898092         0.477160
 H        -2.769491        -2.125344        -1.755259
