19
Iteration:   495
 C         1.608349         0.485817         0.002057
 C         0.193817         0.254741         0.165846
 C        -1.041958         0.219152         0.092971
 C        -2.528956        -0.104852         0.186737
 C        -3.222304         0.927312        -0.795286
 O        -2.852497        -1.535283        -0.140416
 C        -2.296807        -2.578305         0.567768
 C        -3.208491        -3.813085         0.361185
 O        -3.305253        -4.573167         1.267733
 H         2.138459        -0.461794        -0.218166
 H         1.753728         1.154659        -0.842968
 H         2.092355         0.779654         0.855962
 H        -2.796493         0.044768         1.268641
 H        -4.017046         1.502024        -0.379950
 H        -2.521242         1.712536        -1.130483
 H        -3.667912         0.354072        -1.649200
 H        -1.367671        -2.760006        -0.072225
 H        -2.132456        -2.550144         1.615729
 H        -3.866479        -3.956612        -0.509310
