19
Iteration:  3157
 C         1.115247        -1.089409        -0.575267
 C        -0.270075        -0.828420        -0.304971
 C        -1.295238        -0.373614         0.205025
 C        -2.475052         0.052389         0.889710
 C        -3.010385         1.520486         0.650074
 O        -3.493199        -0.910802         0.395512
 C        -3.272695        -2.314300         0.770337
 C        -2.430864        -3.054430        -0.287362
 O        -1.660468        -4.001544        -0.114031
 H         1.654806        -0.205548        -0.865005
 H         1.715188        -1.567901         0.163436
 H         1.246432        -1.756856        -1.524136
 H        -2.252446        -0.167601         1.967609
 H        -3.772607         1.685128         1.446785
 H        -2.222053         2.312938         0.833230
 H        -3.602683         1.709663        -0.280389
 H        -2.785515        -2.367136         1.757805
 H        -4.353754        -2.467502         1.075301
 H        -2.333666        -2.729307        -1.341251
