19
Iteration:  3884charge 0 multiplicity 1
 C         0.972446        -1.389754        -0.555420
 C        -0.115355        -0.626153         0.086624
 C        -1.168669        -0.234980         0.574150
 C        -2.478240         0.071793         1.032072
 C        -3.082928         1.499303         1.074690
 O        -3.469330        -0.780390         0.376541
 C        -3.098976        -2.179826         0.455592
 C        -2.294478        -3.012467        -0.663742
 O        -1.950249        -4.181674        -0.603017
 H         1.705524        -1.819898         0.123071
 H         0.620881        -2.298169        -1.040130
 H         1.696833        -0.773366        -1.209177
 H        -2.540564        -0.317021         2.032551
 H        -2.883630         2.069331         1.960572
 H        -2.712569         2.017288         0.224625
 H        -4.203932         1.439602         0.987811
 H        -2.712818        -2.497582         1.394620
 H        -4.020088        -2.731256         0.508136
 H        -1.878068        -2.418387        -1.507688
