19
Iteration:   979
 C         1.492393         0.075869        -0.262054
 C         0.106005        -0.036980        -0.051796
 C        -1.096851        -0.102095         0.271269
 C        -2.585909         0.035433         0.319993
 C        -2.871312         1.206299        -0.644155
 O        -3.345315        -1.229985         0.124065
 C        -3.028975        -2.388648         0.893111
 C        -2.782750        -3.674439         0.191744
 O        -2.550664        -4.700280         0.857941
 H         1.672053        -0.067087        -1.332011
 H         1.855837         1.035572         0.031448
 H         2.134497        -0.764225         0.144863
 H        -2.869409         0.387975         1.313710
 H        -3.836486         1.250114        -1.016316
 H        -2.786583         2.144104        -0.161655
 H        -2.262676         1.048186        -1.528395
 H        -2.322200        -2.347489         1.709613
 H        -4.007204        -2.663486         1.342921
 H        -2.887968        -3.751929        -0.890105
