19
Iteration:  2250charge 0 multiplicity 1
 C         1.092563        -1.168025        -0.821951
 C        -0.184975        -0.788700        -0.113752
 C        -1.227328        -0.282542         0.145332
 C        -2.611720         0.036083         0.694447
 C        -3.248595         1.401475         0.481640
 O        -3.418983        -0.966231        -0.027552
 C        -3.459098        -2.299062         0.490124
 C        -2.143718        -3.006319         0.164507
 O        -1.525028        -3.860148         0.713590
 H         2.001581        -1.091549        -0.229783
 H         1.087527        -2.214410        -1.267888
 H         1.294216        -0.503255        -1.743859
 H        -2.571733        -0.214622         1.785000
 H        -4.151448         1.478541         1.131689
 H        -2.579961         2.201733         0.717843
 H        -3.627609         1.430338        -0.566821
 H        -3.754203        -2.431497         1.560182
 H        -4.286611        -2.749161        -0.086711
 H        -1.732375        -2.589006        -0.827346
