19
Iteration:   640
 C         1.553554         0.547428        -0.268760
 C         0.230513         0.229180         0.160894
 C        -0.933702        -0.095991         0.198573
 C        -2.410541        -0.234815         0.269272
 C        -3.062317         0.795491        -0.658889
 O        -2.832961        -1.490443        -0.226746
 C        -2.866837        -2.317901         1.003708
 C        -3.420617        -3.569594         0.634023
 O        -2.875695        -4.668076         0.708776
 H         1.650235         1.570949        -0.535895
 H         2.354108         0.175663         0.336272
 H         1.638145         0.034064        -1.211504
 H        -2.780425        -0.085360         1.309129
 H        -4.136534         0.534970        -0.857999
 H        -2.923889         1.868449        -0.519754
 H        -2.607279         0.609362        -1.603022
 H        -1.780812        -2.301417         1.433565
 H        -3.607581        -1.875082         1.682052
 H        -4.390928        -3.477000         0.121109
