19
Iteration:  1292
 C         1.636421         0.296385        -0.039688
 C         0.169542         0.065963         0.026766
 C        -1.036368        -0.088584         0.250200
 C        -2.509545        -0.087164         0.309637
 C        -3.189051         1.124286        -0.298325
 O        -3.122541        -1.301845        -0.149122
 C        -2.566126        -2.449639         0.623616
 C        -3.255601        -3.684490         0.234567
 O        -2.851423        -4.709024         0.710338
 H         2.253867        -0.586559        -0.344769
 H         1.995454         1.117426        -0.799295
 H         2.121876         0.578556         0.957957
 H        -2.690373        -0.002720         1.425930
 H        -3.225339         0.971753        -1.362282
 H        -4.114768         1.243851         0.241824
 H        -2.506245         2.017378         0.008721
 H        -1.528635        -2.613601         0.276830
 H        -2.423655        -2.218878         1.714614
 H        -4.153066        -3.686658        -0.457433
