19
Iteration:  4381charge 0 multiplicity 1
 C         1.702736        -0.413293         0.069311
 C         0.263190        -0.519892         0.496715
 C        -0.969198        -0.610411         0.660475
 C        -2.291116        -0.220195         1.010444
 C        -2.652739         1.291869         0.980569
 O        -3.433098        -0.845291         0.304889
 C        -3.325328        -2.317372         0.380346
 C        -3.064539        -3.119287        -0.902402
 O        -2.825167        -4.299541        -1.113997
 H         2.303699        -1.299509         0.252865
 H         1.902048        -0.081013        -0.991034
 H         2.104621         0.403364         0.662524
 H        -2.567898        -0.521247         1.985600
 H        -2.203556         1.772001         1.868317
 H        -2.340957         1.696932        -0.024604
 H        -3.777708         1.541772         0.851018
 H        -2.636013        -2.471806         1.125763
 H        -4.412861        -2.665277         0.516058
 H        -3.059555        -2.368634        -1.763636
