19
Iteration:  1423charge 0 multiplicity 1
 C         1.602779         0.511687        -0.288511
 C         0.225120         0.284630        -0.129517
 C        -0.929816         0.172402         0.304329
 C        -2.390953        -0.121214         0.427504
 C        -3.203808         1.007080        -0.365805
 O        -2.534206        -1.508252         0.049169
 C        -2.664665        -2.536023         1.104221
 C        -3.182583        -3.701177         0.151270
 O        -3.471461        -4.855547         0.435704
 H         1.842784         1.430064         0.251945
 H         2.135182        -0.359300         0.207550
 H         1.916273         0.560504        -1.354110
 H        -2.807778         0.004322         1.440351
 H        -3.843876         1.476548         0.328401
 H        -2.508431         1.548743        -0.970501
 H        -4.082610         0.625314        -0.978217
 H        -1.751104        -2.769566         1.655660
 H        -3.443100        -2.216049         1.855053
 H        -3.689264        -3.128448        -0.714675
