19
Iteration:  2969
 C         1.175959        -1.027755        -0.776824
 C        -0.129289        -0.501478        -0.296392
 C        -1.147839        -0.213108         0.287566
 C        -2.456224         0.049680         0.981122
 C        -3.120469         1.407725         0.529828
 O        -3.462641        -0.897870         0.460762
 C        -3.287291        -2.312299         0.691418
 C        -2.279435        -3.080616        -0.170536
 O        -1.981261        -4.279252        -0.019117
 H         1.012191        -1.915725        -1.410801
 H         1.823920        -0.345926        -1.258480
 H         1.709601        -1.406360         0.109050
 H        -2.321332        -0.127212         2.052447
 H        -4.145923         1.507635         0.964865
 H        -2.514717         2.330403         0.626508
 H        -3.341940         1.203362        -0.546206
 H        -2.878243        -2.521277         1.683736
 H        -4.349098        -2.597182         0.597677
 H        -1.794319        -2.357999        -0.919893
