19
Iteration:  2160charge 0 multiplicity 1
 C         0.929063        -1.420878        -0.614945
 C        -0.353925        -0.844842        -0.163637
 C        -1.312510        -0.220911         0.083748
 C        -2.666781         0.030357         0.553403
 C        -3.142254         1.490912         0.368291
 O        -3.652633        -1.035101         0.084399
 C        -3.331372        -2.294776         0.739245
 C        -2.033944        -2.915340         0.090971
 O        -1.205947        -3.720329         0.485545
 H         0.774086        -2.469403        -0.975433
 H         1.268878        -0.841953        -1.511386
 H         1.634498        -1.362441         0.202671
 H        -2.708857        -0.142913         1.646064
 H        -4.187873         1.646781         0.444578
 H        -2.723822         2.044124         1.266679
 H        -2.772542         1.887526        -0.514693
 H        -3.161179        -2.233372         1.830633
 H        -4.218635        -2.952633         0.608217
 H        -2.045844        -2.569889        -0.881579
