19
Iteration:  2558charge 0 multiplicity 1
 C         1.363057        -0.558447        -0.678626
 C         0.081798        -0.169388        -0.019421
 C        -1.011105         0.211914         0.402156
 C        -2.454209         0.100849         0.695202
 C        -3.347414         1.085903        -0.037006
 O        -3.100705        -1.168260         0.392999
 C        -2.692917        -2.350356         1.033035
 C        -2.460142        -3.417944        -0.041585
 O        -2.988600        -4.487684         0.018544
 H         2.014863         0.272593        -0.433175
 H         1.663323        -1.605632        -0.448040
 H         1.233643        -0.519696        -1.793292
 H        -2.522453         0.337578         1.789946
 H        -4.158439         1.342546         0.647049
 H        -2.742309         2.043330        -0.247231
 H        -3.673900         0.614914        -0.924542
 H        -1.737497        -2.182615         1.597961
 H        -3.429909        -2.770607         1.761288
 H        -1.825626        -3.078045        -0.855085
