19
Iteration:  4996charge 0 multiplicity 1
 C         1.834105        -0.106080         0.662738
 C         0.374089        -0.134975         0.684514
 C        -0.843941        -0.304788         0.611513
 C        -2.259066        -0.468937         1.021118
 C        -2.747891         0.860633         1.413980
 O        -2.996296        -1.139276        -0.055090
 C        -2.516979        -2.376862        -0.247115
 C        -3.419283        -3.105974        -1.325941
 O        -3.995504        -4.122210        -0.950915
 H         2.325190         0.889413         0.725852
 H         2.289711        -0.796228         1.414962
 H         2.229177        -0.467151        -0.330650
 H        -2.234467        -1.029616         1.983353
 H        -2.648958         1.018218         2.506713
 H        -2.348359         1.755927         0.812244
 H        -3.850205         1.057091         1.116381
 H        -1.425646        -2.277112        -0.523284
 H        -2.751641        -2.989390         0.654765
 H        -3.662032        -2.539263        -2.245719
