19
Iteration:  1700
 C         1.670730         0.268173        -0.194352
 C         0.175892         0.071328         0.014692
 C        -1.020627         0.080740         0.172370
 C        -2.457688        -0.107763         0.296268
 C        -3.238051         1.234366         0.150998
 O        -2.941121        -1.315747        -0.389795
 C        -2.362160        -2.422610         0.372227
 C        -3.275137        -3.786646         0.294191
 O        -3.188215        -4.814375         0.947745
 H         2.044325         0.988782         0.562412
 H         2.013091        -0.716814        -0.082104
 H         1.838621         0.623073        -1.191875
 H        -2.470880        -0.275886         1.379879
 H        -3.929622         1.567526         0.948216
 H        -2.511043         1.934393        -0.313104
 H        -3.925179         1.107682        -0.689774
 H        -1.398358        -2.766421         0.128165
 H        -2.307022        -2.081272         1.431900
 H        -4.062335        -3.584056        -0.455245
