19
Iteration:  1237charge 0 multiplicity 1
 C         1.594760         0.052523         0.155351
 C         0.167066         0.036723         0.041040
 C        -1.030511        -0.014985         0.033561
 C        -2.502878         0.027380         0.261781
 C        -3.420845         1.190993        -0.468027
 O        -3.206090        -1.296976         0.274727
 C        -2.296215        -2.432683         0.279046
 C        -3.093832        -3.657150         0.281588
 O        -2.854416        -4.728259         0.736939
 H         2.202663         0.047587        -0.774307
 H         1.814419         1.037081         0.781627
 H         1.924593        -0.810467         0.810619
 H        -2.481619         0.359053         1.308915
 H        -4.294905         0.913108        -1.051851
 H        -3.731684         1.796496         0.393029
 H        -2.764874         1.782349        -1.177126
 H        -1.682815        -2.530831        -0.684707
 H        -1.783824        -2.351154         1.266071
 H        -4.104285        -3.504997        -0.134950
