19
Iteration:  1313charge 0 multiplicity 1
 C         1.532449         0.322539        -0.116921
 C         0.111908         0.179093        -0.010825
 C        -1.047271        -0.043086         0.261688
 C        -2.522292        -0.130381         0.355651
 C        -3.054634         1.233820        -0.260093
 O        -2.966688        -1.388777        -0.190257
 C        -2.522216        -2.348596         0.704955
 C        -3.205478        -3.738355         0.329160
 O        -2.996629        -4.882521         0.626095
 H         1.977811        -0.685302         0.013907
 H         1.875750         0.720083        -1.162620
 H         1.999613         0.953654         0.689434
 H        -2.808436        -0.187392         1.453187
 H        -2.448377         1.330286        -1.150450
 H        -4.124438         1.149481        -0.452441
 H        -2.915347         2.165616         0.376153
 H        -1.430821        -2.390837         0.858848
 H        -3.058877        -2.056610         1.638372
 H        -4.021464        -3.598869        -0.481037
