19
Iteration:  3719
 C         1.440066        -0.663593        -0.342524
 C        -0.055777        -0.736552        -0.141224
 C        -1.199670        -0.646629         0.244878
 C        -2.482848        -0.227688         1.008602
 C        -2.654397         1.270384         0.768798
 O        -3.643532        -0.923995         0.355357
 C        -3.455798        -2.286940         0.632671
 C        -2.684162        -2.898736        -0.475371
 O        -2.011632        -3.928859        -0.370546
 H         1.635026         0.180038        -0.946266
 H         1.864250        -0.294691         0.622239
 H         1.660117        -1.716697        -0.678254
 H        -2.296630        -0.438686         2.095425
 H        -1.693646         1.767733         0.526277
 H        -3.336694         1.353280        -0.116015
 H        -3.006768         1.746695         1.658956
 H        -3.053105        -2.725935         1.577533
 H        -4.432427        -2.900947         0.441126
 H        -2.597861        -2.248383        -1.388674
