19
Iteration:  1080
 C         1.581704        -0.097348         0.003499
 C         0.091302         0.115665        -0.162472
 C        -1.113749         0.042119         0.122774
 C        -2.476727         0.038477         0.343131
 C        -3.171171         1.040649        -0.544378
 O        -3.159743        -1.250862        -0.003675
 C        -2.870606        -2.270075         0.844028
 C        -3.210408        -3.741074         0.468731
 O        -2.366471        -4.617855         0.547390
 H         1.732909        -0.830855         0.831210
 H         2.109320        -0.632776        -0.828515
 H         2.131715         0.865168         0.181891
 H        -2.610505         0.328203         1.388728
 H        -4.106823         1.354638        -0.118165
 H        -2.493325         1.823462        -0.823887
 H        -3.435705         0.666706        -1.508778
 H        -1.880551        -2.214830         1.372801
 H        -3.559486        -2.261717         1.722307
 H        -4.273775        -3.957830         0.097223
