19
Iteration:  2615charge 0 multiplicity 1
 C         1.436772        -0.459189        -0.543071
 C        -0.007086        -0.303882        -0.159711
 C        -1.091076         0.001151         0.239842
 C        -2.525372         0.084738         0.730263
 C        -3.258999         1.181506        -0.131247
 O        -3.241865        -1.203094         0.686192
 C        -2.507936        -2.392203         1.080977
 C        -2.470390        -3.346492        -0.145184
 O        -3.017385        -4.395463        -0.034186
 H         1.735281         0.352018        -1.331011
 H         2.224524        -0.290207         0.276533
 H         1.602548        -1.391920        -1.074831
 H        -2.494405         0.397555         1.811823
 H        -4.393398         1.144095        -0.235032
 H        -2.984089         2.190915         0.177695
 H        -2.835887         1.100945        -1.186657
 H        -1.443075        -2.299339         1.463786
 H        -3.046927        -3.009451         1.860903
 H        -1.999301        -3.019829        -1.126309
