19
Iteration:  2061charge 0 multiplicity 1
 C         1.088283        -1.116503        -0.555979
 C        -0.129766        -0.535100         0.010296
 C        -1.270649        -0.251760         0.387403
 C        -2.660052         0.087621         0.660740
 C        -3.203728         1.236614        -0.290447
 O        -3.576086        -1.033881         0.491831
 C        -3.114345        -2.253277         1.037124
 C        -2.201984        -2.984970        -0.009006
 O        -1.646551        -4.038402         0.072227
 H         1.293312        -0.642273        -1.571940
 H         1.894871        -1.059110         0.174378
 H         0.875302        -2.140800        -0.862028
 H        -2.702575         0.443323         1.702354
 H        -3.910889         1.899387         0.152009
 H        -2.356075         1.858741        -0.601092
 H        -3.603288         0.772824        -1.185066
 H        -2.528452        -2.213519         1.959759
 H        -4.002170        -2.776129         1.282168
 H        -2.321070        -2.374283        -1.022649
