19
Iteration:  3046
 C         1.079831        -0.842601        -0.895037
 C        -0.237464        -0.820567        -0.093002
 C        -1.152666        -0.462601         0.596863
 C        -2.493353        -0.041455         0.880306
 C        -2.883035         1.405193         0.414709
 O        -3.485052        -0.943936         0.399072
 C        -3.311777        -2.308152         0.728507
 C        -2.506094        -3.069801        -0.331315
 O        -1.745496        -3.959085         0.071832
 H         1.737152        -1.552184        -0.368528
 H         0.849276        -1.078804        -1.892428
 H         1.585898         0.170012        -0.915895
 H        -2.502124        -0.010026         1.996376
 H        -3.895088         1.823884         0.671661
 H        -2.110561         1.896797         0.963366
 H        -2.609545         1.558327        -0.712397
 H        -2.878203        -2.537276         1.717773
 H        -4.449872        -2.544410         0.616060
 H        -2.815619        -2.800666        -1.295101
