19
Iteration:  1579
 C         1.696957         0.690912        -0.189334
 C         0.189962         0.373377         0.040560
 C        -0.916818        -0.086805         0.179251
 C        -2.347295        -0.270195         0.499531
 C        -3.155104         0.884654        -0.087425
 O        -2.954851        -1.458029        -0.052508
 C        -2.242422        -2.664771         0.167973
 C        -3.288999        -3.714972         0.167723
 O        -3.603383        -4.534812         0.991013
 H         2.239683        -0.221147        -0.599521
 H         1.807298         1.553005        -0.820542
 H         2.111760         0.884617         0.835000
 H        -2.399338        -0.391705         1.597271
 H        -2.611384         1.107993        -1.056562
 H        -4.189439         0.565689        -0.431334
 H        -3.106768         1.807823         0.406498
 H        -1.566926        -2.867975        -0.717319
 H        -1.632641        -2.754991         1.121608
 H        -3.835254        -3.571272        -0.747460
