19
Iteration:  1316charge 0 multiplicity 1
 C         1.506336         0.328810        -0.130732
 C         0.091402         0.184840        -0.002861
 C        -1.063456        -0.021956         0.260818
 C        -2.489383        -0.117734         0.355700
 C        -3.038224         1.238188        -0.257634
 O        -2.947097        -1.385908        -0.192142
 C        -2.524237        -2.370040         0.719534
 C        -3.202478        -3.749576         0.305925
 O        -3.012230        -4.888823         0.626200
 H         1.979633        -0.676461         0.030945
 H         1.872287         0.622401        -1.132533
 H         2.032081         0.999873         0.618866
 H        -2.736775        -0.168785         1.436557
 H        -2.396118         1.289006        -1.125506
 H        -4.067336         1.091253        -0.579873
 H        -2.986421         2.100928         0.453521
 H        -1.444125        -2.341035         1.009838
 H        -3.067152        -2.093624         1.663652
 H        -4.054982        -3.577440        -0.410589
