19
Iteration:  2105charge 0 multiplicity 1
 C         1.059333        -1.321442        -0.571852
 C        -0.178752        -0.655695        -0.198934
 C        -1.263984        -0.209176         0.230958
 C        -2.640136         0.105173         0.693098
 C        -3.245725         1.337236        -0.041807
 O        -3.601295        -0.949300         0.540655
 C        -3.253564        -2.321830         0.790697
 C        -2.204727        -3.008694        -0.126468
 O        -1.410956        -3.828692         0.357068
 H         1.006697        -1.819327        -1.581731
 H         1.965471        -0.715955        -0.462784
 H         1.267111        -2.209634        -0.001470
 H        -2.656507         0.300970         1.771153
 H        -4.292311         1.179215        -0.082544
 H        -2.980964         2.267700         0.495833
 H        -2.802460         1.409569        -1.009989
 H        -2.932496        -2.515032         1.813763
 H        -4.155582        -2.893219         0.642838
 H        -2.315502        -2.844439        -1.319263
