19
Iteration:   998charge 0 multiplicity 1
 C         1.543506         0.119488        -0.224353
 C         0.102595        -0.177776        -0.099878
 C        -1.056226        -0.132452         0.200381
 C        -2.467775        -0.045135         0.419754
 C        -3.024978         0.993361        -0.625123
 O        -3.219476        -1.183833         0.056286
 C        -3.161728        -2.320649         0.999619
 C        -2.850936        -3.560800         0.163847
 O        -2.525411        -4.585479         0.784331
 H         2.044164        -0.264507        -1.125590
 H         1.621164         1.229926        -0.212391
 H         2.089183        -0.287504         0.619306
 H        -2.711075         0.316033         1.428898
 H        -4.069565         0.653732        -0.961630
 H        -3.232948         1.962316        -0.059127
 H        -2.306512         1.129431        -1.462408
 H        -2.284290        -2.261032         1.628203
 H        -4.091182        -2.410871         1.579290
 H        -3.002105        -3.497893        -0.960035
