19
Iteration:   770
 C         1.469788         0.021329        -0.033753
 C         0.011820        -0.345732         0.078326
 C        -1.157223        -0.011191        -0.108371
 C        -2.517677         0.125191         0.317089
 C        -3.429209         0.964782        -0.680729
 O        -3.066828        -1.209177         0.192487
 C        -2.281882        -2.300229         0.916016
 C        -2.603919        -3.558490         0.182333
 O        -3.080843        -4.554803         0.776945
 H         2.138020        -0.873970        -0.204536
 H         1.593170         0.679871        -0.937395
 H         1.793631         0.468035         0.929202
 H        -2.538110         0.591345         1.324190
 H        -4.455419         0.509046        -0.746735
 H        -3.725580         1.933672        -0.225764
 H        -3.077895         1.036902        -1.645480
 H        -1.250900        -2.216474         0.816325
 H        -2.501377        -2.297571         1.979413
 H        -2.377878        -3.579716        -0.913089
