19
Iteration:  2839
 C         1.226256        -0.727881        -0.694044
 C        -0.038038        -0.391339        -0.133288
 C        -1.005077        -0.031375         0.419233
 C        -2.398179         0.153857         0.842088
 C        -3.193436         1.232240         0.227283
 O        -3.319987        -0.921430         0.561843
 C        -2.958780        -2.286846         0.874165
 C        -2.667844        -3.343929        -0.216838
 O        -2.295188        -4.514530        -0.123242
 H         2.027700        -0.002699        -0.466935
 H         1.680818        -1.687138        -0.516759
 H         1.143298        -0.734349        -1.860254
 H        -2.311791         0.264763         1.948603
 H        -4.108355         1.355337         0.817072
 H        -2.757791         2.260426         0.200872
 H        -3.412358         0.935875        -0.770004
 H        -2.113817        -2.360423         1.567055
 H        -3.804119        -2.551684         1.468247
 H        -2.921094        -2.968964        -1.303580
