19
Iteration:  2842charge 0 multiplicity 1
 C         1.225463        -0.741659        -0.694353
 C        -0.036159        -0.391925        -0.152252
 C        -1.019368        -0.038381         0.445090
 C        -2.386774         0.160016         0.836013
 C        -3.206775         1.269222         0.242511
 O        -3.308543        -0.942541         0.562500
 C        -2.951114        -2.287371         0.866051
 C        -2.662573        -3.348330        -0.259223
 O        -2.295716        -4.493919        -0.093955
 H         1.936222         0.004051        -0.496770
 H         1.736620        -1.694959        -0.506992
 H         1.122353        -0.836435        -1.775382
 H        -2.284045         0.321318         1.920016
 H        -4.087104         1.330325         0.878457
 H        -2.805255         2.203069         0.161578
 H        -3.480061         0.988196        -0.797695
 H        -2.079272        -2.316246         1.582804
 H        -3.873493        -2.668020         1.340691
 H        -2.910495        -3.012925        -1.283492
