19
Iteration:  3118charge 0 multiplicity 1
 C         1.244329        -1.032971        -0.716600
 C        -0.066748        -0.686945        -0.198330
 C        -1.226835        -0.476823         0.124525
 C        -2.507319        -0.087920         0.854991
 C        -2.917983         1.334678         0.560389
 O        -3.675557        -0.975571         0.548857
 C        -3.446166        -2.323570         0.763900
 C        -2.382014        -2.848776        -0.306405
 O        -1.753254        -3.868793         0.015541
 H         2.042476        -0.327131        -0.395785
 H         1.445873        -2.144841        -0.557111
 H         1.093852        -1.028747        -1.779652
 H        -2.388856        -0.127556         1.947928
 H        -4.004486         1.387267         0.538632
 H        -2.576495         2.037797         1.345260
 H        -2.507057         1.595431        -0.373865
 H        -2.798564        -2.395577         1.648585
 H        -4.286223        -2.959979         0.781267
 H        -2.367057        -2.252515        -1.254042
