19
Iteration:  3240charge 0 multiplicity 1
 C         0.958625        -1.330595        -0.653938
 C        -0.142303        -0.603722         0.004969
 C        -1.104784        -0.038409         0.435222
 C        -2.500253         0.168067         0.864716
 C        -3.263072         1.414286         0.551855
 O        -3.345714        -0.917552         0.391090
 C        -3.159067        -2.245548         0.785891
 C        -2.252597        -3.046594        -0.292736
 O        -1.851523        -4.210169        -0.308473
 H         0.772797        -1.733579        -1.711262
 H         1.842078        -0.622672        -0.691288
 H         1.343164        -2.113591        -0.050644
 H        -2.550411        -0.001631         1.967472
 H        -2.575395         2.176177         0.883510
 H        -3.456291         1.502349        -0.470150
 H        -4.229581         1.427363         1.141681
 H        -2.805156        -2.571570         1.816791
 H        -4.147924        -2.636556         0.543796
 H        -2.300566        -2.385114        -1.191831
