19
Iteration:  2319charge 0 multiplicity 1
 C         1.213916        -0.620485        -0.707541
 C        -0.186401        -0.578397        -0.445413
 C        -1.209863        -0.426600         0.253947
 C        -2.503635        -0.068351         0.726147
 C        -2.926700         1.328533         0.350196
 O        -3.466335        -0.937400         0.087720
 C        -3.473174        -2.309636         0.561780
 C        -2.381727        -3.223640         0.087631
 O        -1.789784        -4.134943         0.728824
 H         1.590965         0.428401        -0.979730
 H         1.739416        -1.078172         0.180917
 H         1.473353        -1.378609        -1.521099
 H        -2.559102        -0.233762         1.835262
 H        -4.030385         1.350141         0.260123
 H        -2.633615         2.047314         1.178533
 H        -2.501761         1.734023        -0.624628
 H        -3.658375        -2.368325         1.641509
 H        -4.393331        -2.611683         0.049573
 H        -2.150552        -3.152593        -1.074447
