19
Iteration:  2648charge 0 multiplicity 1
 C         1.358734        -0.301771        -0.482029
 C        -0.004609        -0.348377        -0.248397
 C        -1.043196        -0.184800         0.270739
 C        -2.318170         0.143657         0.688376
 C        -3.243906         1.071742        -0.144732
 O        -3.241068        -1.042544         0.824155
 C        -2.631627        -2.345895         1.075985
 C        -2.570626        -3.354711        -0.157354
 O        -2.980169        -4.511997        -0.143916
 H         1.674582        -0.166096        -1.632497
 H         1.948769         0.507117         0.083171
 H         1.796452        -1.245967        -0.160493
 H        -2.201854         0.518800         1.745500
 H        -4.336152         0.811270         0.104020
 H        -3.069326         2.120171         0.017930
 H        -3.113354         0.802561        -1.272668
 H        -1.518829        -2.193170         1.191905
 H        -3.178329        -2.704895         1.990444
 H        -1.890786        -2.951472        -1.052989
