19
Iteration:  2556charge 0 multiplicity 1
 C         1.357610        -0.555371        -0.668926
 C         0.044969        -0.172994        -0.037989
 C        -0.992795         0.209669         0.407633
 C        -2.440086         0.107175         0.687952
 C        -3.352380         1.104944        -0.037035
 O        -3.080943        -1.155876         0.403755
 C        -2.697210        -2.372726         1.038920
 C        -2.456666        -3.425924        -0.054923
 O        -2.990390        -4.499765         0.029640
 H         2.010051         0.216475        -0.355022
 H         1.704753        -1.578864        -0.466529
 H         1.214888        -0.458776        -1.796631
 H        -2.509690         0.345222         1.781106
 H        -4.162495         1.345043         0.616397
 H        -2.743520         2.029484        -0.238298
 H        -3.721861         0.645033        -0.932687
 H        -1.817407        -2.129073         1.583079
 H        -3.486575        -2.773622         1.667629
 H        -1.765524        -3.098925        -0.895087
