19
Iteration:  2093
 C         1.044466        -1.290036        -0.562282
 C        -0.156471        -0.611283        -0.101534
 C        -1.289105        -0.105930         0.166569
 C        -2.636593         0.153791         0.724116
 C        -3.186902         1.346738        -0.128066
 O        -3.563830        -1.024274         0.557483
 C        -3.274490        -2.397732         0.875440
 C        -2.226408        -3.008079         0.000835
 O        -1.433939        -3.916044         0.219274
 H         0.992081        -1.300473        -1.689971
 H         1.938875        -0.721565        -0.347765
 H         1.038102        -2.229117        -0.069196
 H        -2.474905         0.395595         1.778725
 H        -4.232842         1.550153        -0.190756
 H        -2.715819         2.248050         0.174294
 H        -2.863468         1.099357        -1.139622
 H        -3.173623        -2.535652         1.948309
 H        -4.153320        -2.926978         0.504187
 H        -2.505979        -2.772055        -1.158145
