19
Iteration:   450
 C         1.534471         0.267099         0.012657
 C         0.050023         0.304695         0.092535
 C        -1.152551         0.112134         0.313514
 C        -2.587503        -0.266092         0.227251
 C        -3.185884         0.869042        -0.647725
 O        -2.867205        -1.475288        -0.472271
 C        -2.213306        -2.474424         0.354055
 C        -3.005150        -3.652524         0.481152
 O        -3.288464        -4.390871         1.408217
 H         1.941137        -0.076845        -0.980046
 H         2.033455         1.223875         0.178255
 H         1.877789        -0.503448         0.618659
 H        -3.006756        -0.279108         1.300795
 H        -4.270440         1.101038        -0.500240
 H        -2.615908         1.824605        -0.542826
 H        -3.056547         0.359405        -1.615656
 H        -1.306167        -2.923642        -0.168286
 H        -1.935049        -1.923000         1.213400
 H        -3.322060        -4.078883        -0.533091
