19
Iteration:  3578
 C         1.059167        -0.929140        -0.688745
 C        -0.049752        -0.684134         0.240879
 C        -1.028693        -0.037719         0.704386
 C        -2.584014         0.059797         1.009172
 C        -3.017851         1.457108         0.742323
 O        -3.369174        -0.865035         0.232162
 C        -3.053344        -2.303370         0.435777
 C        -2.234029        -3.203394        -0.415974
 O        -2.353214        -4.417411        -0.367717
 H         1.399878        -1.947346        -0.645335
 H         0.634447        -0.960192        -1.766985
 H         1.759658        -0.087283        -0.841040
 H        -2.808319        -0.247783         2.097390
 H        -2.218632         2.179062         1.068546
 H        -3.177673         1.722296        -0.380152
 H        -3.862688         1.768321         1.307384
 H        -2.434621        -2.244376         1.351812
 H        -4.074624        -2.692386         0.596562
 H        -1.601481        -2.489602        -1.041211
