19
Iteration:  2547
 C         1.293846        -0.504197        -0.621777
 C         0.005654        -0.248448        -0.174279
 C        -1.013178         0.193641         0.434046
 C        -2.402041         0.158521         0.701885
 C        -3.359848         1.184242        -0.037656
 O        -3.003176        -1.106699         0.429248
 C        -2.719528        -2.426941         1.023076
 C        -2.424272        -3.463374        -0.087404
 O        -2.989598        -4.559512         0.064660
 H         2.093184         0.003236        -0.087187
 H         1.721055        -1.526440        -0.487103
 H         1.346452        -0.192335        -1.707463
 H        -2.556985         0.332020         1.802497
 H        -4.240692         1.423731         0.559203
 H        -2.790846         2.164984        -0.300588
 H        -3.758987         0.838048        -0.950633
 H        -1.904045        -2.287086         1.801654
 H        -3.699566        -2.746670         1.425095
 H        -1.747210        -3.283865        -0.887353
