19
Iteration:  4396
 C         1.631461        -0.362059         0.159391
 C         0.294342        -0.586649         0.477833
 C        -0.935985        -0.543425         0.555370
 C        -2.348755        -0.184708         1.017443
 C        -2.615064         1.319731         0.994822
 O        -3.387830        -0.906163         0.277966
 C        -3.326076        -2.315478         0.390997
 C        -3.041407        -3.098257        -1.014037
 O        -2.863980        -4.319978        -1.073766
 H         2.351886        -1.084062         0.597281
 H         1.627444        -0.552964        -0.898929
 H         2.111901         0.584430         0.440844
 H        -2.295964        -0.447512         2.077998
 H        -2.076009         1.866742         1.764858
 H        -2.450060         1.938027         0.110713
 H        -3.572631         1.427861         1.422885
 H        -2.666725        -2.910755         1.210769
 H        -4.405065        -2.548349         0.801924
 H        -3.361885        -2.617455        -1.902573
