19
Iteration:  4585
 C         1.463834        -0.644255        -0.015379
 C         0.173107        -0.461376         0.706623
 C        -1.001984        -0.304490         1.038490
 C        -2.382565        -0.077538         1.229918
 C        -2.997753         1.331238         0.889753
 O        -2.989966        -1.021255         0.137359
 C        -2.517629        -2.423170         0.246412
 C        -2.850376        -3.119444        -1.076902
 O        -3.476458        -4.173996        -1.163154
 H         1.115113        -1.283188        -0.851937
 H         1.809710         0.352377        -0.299833
 H         2.203557        -1.269950         0.549732
 H        -2.754355        -0.370383         2.289010
 H        -2.361292         1.955531         1.578137
 H        -2.856469         1.528017        -0.137532
 H        -4.047169         1.241244         1.284592
 H        -1.484086        -2.540581         0.392436
 H        -2.947625        -2.834586         1.191883
 H        -2.726143        -2.468558        -1.928416
