19
Iteration:  3206charge 0 multiplicity 1
 C         0.951276        -1.313819        -0.641639
 C        -0.009531        -0.449463        -0.048522
 C        -1.146497        -0.104803         0.268823
 C        -2.534095         0.051256         0.861257
 C        -3.140767         1.354997         0.647461
 O        -3.463265        -0.941557         0.404300
 C        -3.151703        -2.304616         0.692229
 C        -2.397194        -3.066684        -0.402071
 O        -1.819096        -4.060151        -0.118731
 H         1.234038        -1.120786        -1.711301
 H         1.937097        -1.140659        -0.083992
 H         0.753190        -2.331422        -0.398832
 H        -2.353611        -0.055399         1.961481
 H        -3.122359         2.039818         1.491940
 H        -2.636362         1.847270        -0.129587
 H        -4.192813         1.223738         0.330319
 H        -2.473875        -2.198804         1.587722
 H        -4.045173        -2.721289         1.146815
 H        -2.272586        -2.706787        -1.383465
