19
Iteration:  3291charge 0 multiplicity 1
 C         1.024406        -1.107755        -0.593041
 C        -0.142122        -0.625045        -0.009253
 C        -1.253157        -0.402718         0.498283
 C        -2.673621         0.044421         0.916342
 C        -2.995432         1.513908         0.407902
 O        -3.541690        -0.965372         0.496012
 C        -2.944131        -2.253547         0.799957
 C        -2.166764        -2.939744        -0.449362
 O        -1.994910        -4.143632        -0.297177
 H         0.893709        -2.162098        -0.604812
 H         1.191410        -0.748054        -1.646997
 H         2.028052        -1.029410        -0.115167
 H        -2.862715        -0.041339         1.997108
 H        -2.087155         1.958689        -0.027969
 H        -3.840391         1.395966        -0.292107
 H        -3.394688         1.988346         1.329128
 H        -2.352200        -2.376876         1.692768
 H        -3.877020        -2.872901         0.856254
 H        -2.144781        -2.320053        -1.303604
