19
Iteration:   210
 C         1.645087         0.470697        -0.175805
 C         0.201245         0.370377        -0.060166
 C        -0.970770         0.115594         0.060813
 C        -2.437408        -0.027431         0.166058
 C        -2.853696         0.770263        -1.081402
 O        -3.110582        -1.403830        -0.032613
 C        -2.528492        -2.473658         0.683852
 C        -3.500499        -3.716199         0.916670
 O        -3.132525        -4.834165         1.202664
 H         2.192950        -0.524162        -0.383265
 H         1.898270         1.074762        -1.069031
 H         2.049007         0.871943         0.723621
 H        -2.720998         0.571258         1.143358
 H        -2.288588         0.346786        -1.936502
 H        -3.906471         0.803275        -1.293725
 H        -2.468202         1.732787        -0.871359
 H        -1.593631        -2.818041         0.170595
 H        -2.266844        -2.210627         1.762951
 H        -4.542817        -3.388885         0.862189
