19
Iteration:   676charge 0 multiplicity 1
 C         1.541241         0.378692        -0.339311
 C         0.158961         0.061758         0.101254
 C        -1.037367         0.152453         0.412554
 C        -2.479093        -0.026889         0.325408
 C        -3.118351         0.978489        -0.844150
 O        -2.780643        -1.436041        -0.074282
 C        -2.779758        -2.405369         1.021529
 C        -3.291969        -3.663923         0.405639
 O        -2.883969        -4.790012         0.764009
 H         1.542604         1.032376        -1.195016
 H         2.117269         0.865174         0.427039
 H         2.039670        -0.598446        -0.634024
 H        -2.891267         0.113057         1.366936
 H        -4.097997         1.376346        -0.524874
 H        -2.476084         1.894443        -0.813618
 H        -3.136528         0.288269        -1.717461
 H        -1.736160        -2.522961         1.461418
 H        -3.438063        -2.284536         1.908507
 H        -4.058940        -3.483909        -0.372485
