19
Iteration:    81
 C         1.696183         0.233398        -0.178585
 C         0.302057         0.404370        -0.111743
 C        -0.922445         0.248417        -0.177928
 C        -2.337339        -0.139458         0.002782
 C        -3.114249         0.580914        -1.026407
 O        -2.873376        -1.544302        -0.095433
 C        -2.759596        -2.175204         1.176547
 C        -3.564496        -3.583573         1.003698
 O        -3.038221        -4.675812         0.996889
 H         2.306645         1.177537        -0.205974
 H         1.971455        -0.238632         0.764873
 H         2.006121        -0.356321        -1.006130
 H        -2.566065         0.221708         1.018489
 H        -4.214212         0.541316        -0.749099
 H        -2.793937         1.632547        -1.237929
 H        -2.964711        -0.059309        -1.917030
 H        -1.703334        -2.277602         1.454955
 H        -3.282795        -1.667690         1.998002
 H        -4.625878        -3.503980         1.127008
