19
Iteration:  3695charge 0 multiplicity 1
 C         1.390398        -0.727687        -0.311111
 C         0.010481        -0.697584        -0.062164
 C        -1.173824        -0.491657         0.178202
 C        -2.448111        -0.171261         0.823460
 C        -2.684178         1.344148         0.826268
 O        -3.683194        -0.896008         0.505437
 C        -3.476613        -2.280762         0.623713
 C        -2.601977        -3.007138        -0.577364
 O        -2.033120        -4.064982        -0.348255
 H         1.572501         0.324136        -0.589559
 H         2.069588        -0.949403         0.500603
 H         1.375744        -1.434532        -1.220431
 H        -2.218457        -0.342359         1.914996
 H        -1.845766         2.001600         1.030009
 H        -3.110962         1.565370        -0.197216
 H        -3.453914         1.477787         1.547559
 H        -2.964643        -2.707792         1.500901
 H        -4.417849        -2.821641         0.499820
 H        -2.589310        -2.554808        -1.608855
