19
Iteration:  2662
 C         1.499467        -0.302585        -0.516313
 C         0.034451        -0.209680        -0.213066
 C        -1.075432        -0.342537         0.248865
 C        -2.441462         0.092152         0.688395
 C        -3.246684         1.074643        -0.167428
 O        -3.186780        -1.116190         0.802516
 C        -2.644937        -2.366837         1.095805
 C        -2.632749        -3.252507        -0.117726
 O        -2.951045        -4.452658        -0.139196
 H         1.661554        -0.489268        -1.635006
 H         1.952159         0.661047        -0.264412
 H         1.959323        -1.164174         0.026558
 H        -2.367877         0.632821         1.667845
 H        -4.235179         1.058734         0.300718
 H        -2.863387         2.100208        -0.101036
 H        -3.345040         0.798764        -1.237302
 H        -1.612390        -2.372853         1.657220
 H        -3.275667        -2.935296         1.811132
 H        -2.443523        -2.717158        -1.132842
