19
Iteration:  4849charge 0 multiplicity 1
 C         1.765350        -0.077289         0.395798
 C         0.404687        -0.162041         0.656400
 C        -0.732831        -0.134405         1.028898
 C        -2.257652        -0.423333         1.193722
 C        -2.785407         0.963939         1.048507
 O        -2.731512        -1.143264         0.092608
 C        -2.710749        -2.608102         0.024040
 C        -3.712522        -3.068414        -1.003507
 O        -3.835368        -4.214298        -1.427166
 H         1.990408        -0.896497        -0.427471
 H         2.217626         0.908574        -0.015658
 H         2.448558        -0.221458         1.344342
 H        -2.579428        -0.959417         2.194985
 H        -2.692313         1.626913         1.918203
 H        -2.253704         1.460480         0.126138
 H        -3.840507         1.049800         0.777548
 H        -1.633207        -2.983685        -0.322759
 H        -2.911609        -3.244573         0.881110
 H        -4.203828        -2.110577        -1.379305
