19
Iteration:  1566
 C         1.592051         0.713429        -0.128254
 C         0.198772         0.325865        -0.125420
 C        -0.867719        -0.147195         0.241477
 C        -2.335650        -0.301023         0.553560
 C        -3.078615         0.839645        -0.107914
 O        -2.969751        -1.387019        -0.156484
 C        -2.209389        -2.559295         0.241437
 C        -3.292884        -3.730005         0.177933
 O        -3.628074        -4.567013         0.979739
 H         2.133863         0.031969        -0.789560
 H         1.823113         1.679113        -0.515496
 H         2.081243         0.676699         0.869128
 H        -2.537403        -0.369654         1.637382
 H        -2.996404         0.782446        -1.211670
 H        -4.134411         0.567450         0.269719
 H        -2.888705         1.877120         0.369802
 H        -1.401810        -2.771277        -0.517762
 H        -1.703605        -2.353762         1.215161
 H        -3.767980        -3.780711        -0.797892
