19
Iteration:  4004charge 0 multiplicity 1
 C         1.121298        -1.283793        -0.348169
 C        -0.238421        -0.946442         0.113751
 C        -1.335407        -0.527860         0.373002
 C        -2.501376        -0.108285         1.125620
 C        -2.783990         1.269067         0.759992
 O        -3.610662        -0.883628         0.641308
 C        -3.329992        -2.202989         0.509711
 C        -2.431020        -2.647603        -0.731534
 O        -1.697917        -3.667316        -0.685142
 H         1.367693        -1.072513        -1.349731
 H         1.924344        -1.002945         0.254590
 H         1.214722        -2.387689        -0.458893
 H        -2.229874        -0.111196         2.215709
 H        -2.050968         1.858306         1.246030
 H        -2.701878         1.433449        -0.292917
 H        -3.728279         1.720535         1.125441
 H        -2.861812        -2.730027         1.339751
 H        -4.293432        -2.759535         0.470317
 H        -2.557917        -1.942175        -1.572827
