19
Iteration:  3328
 C         1.227259        -0.972296        -0.559287
 C        -0.103300        -0.620968         0.047464
 C        -1.177476        -0.234942         0.432209
 C        -2.532300        -0.030129         0.901560
 C        -2.953446         1.348679         0.350704
 O        -3.498896        -0.953851         0.567454
 C        -3.238093        -2.390075         0.876175
 C        -2.506448        -3.013302        -0.373672
 O        -1.902313        -4.055905        -0.433381
 H         1.552798        -1.901804        -0.042836
 H         0.877808        -1.399819        -1.502776
 H         1.864265        -0.149084        -0.614414
 H        -2.460203         0.081393         2.015798
 H        -2.259874         1.836248        -0.319918
 H        -3.789687         1.172129        -0.305265
 H        -3.274528         2.181322         0.971389
 H        -2.739744        -2.693078         1.877367
 H        -4.279772        -2.750103         0.886426
 H        -2.501309        -2.461666        -1.296305
