19
Iteration:  1981
 C         1.351775        -0.763635        -0.247557
 C        -0.023289        -0.263272        -0.144498
 C        -1.182510        -0.102356         0.051525
 C        -2.568903         0.157178         0.480063
 C        -3.361059         1.128335        -0.441551
 O        -3.362009        -0.990827         0.879051
 C        -2.909527        -2.333396         1.198626
 C        -2.520236        -3.260360        -0.051589
 O        -2.119348        -4.389997        -0.090532
 H         2.053308        -0.351853         0.537856
 H         1.365502        -1.853325        -0.151007
 H         1.886356        -0.657653        -1.204948
 H        -2.552256         0.865372         1.323104
 H        -4.307315         1.310355         0.093512
 H        -2.784279         1.989400        -0.719516
 H        -3.652092         0.619563        -1.354282
 H        -2.078964        -2.401117         1.889580
 H        -3.835202        -2.630980         1.708799
 H        -2.667882        -2.750537        -0.949954
