19
Iteration:  4688charge 0 multiplicity 1
 C         1.742454        -0.483961         0.344219
 C         0.336776        -0.433079         0.611449
 C        -0.878587        -0.259791         0.650440
 C        -2.300905        -0.165196         1.076554
 C        -2.966249         1.138693         0.987120
 O        -3.112416        -1.067639         0.307867
 C        -2.680297        -2.386140         0.180650
 C        -3.352068        -3.024758        -0.984877
 O        -3.387602        -4.198167        -1.306472
 H         2.392197        -0.601177         1.255314
 H         2.088192        -1.516769        -0.148267
 H         2.101950         0.383472        -0.261475
 H        -2.463431        -0.499923         2.181651
 H        -2.496846         1.752625         1.759734
 H        -2.829966         1.554408        -0.060437
 H        -4.010354         1.024884         1.185707
 H        -1.609438        -2.264415        -0.003923
 H        -2.830854        -3.100772         1.059672
 H        -4.029605        -2.312981        -1.504047
