19
Iteration:  1639
 C         1.707557         0.457031        -0.205249
 C         0.235016         0.224060         0.059783
 C        -0.916655         0.051363         0.312255
 C        -2.359128        -0.151275         0.512650
 C        -3.350854         0.830451        -0.106901
 O        -2.916949        -1.357017        -0.073408
 C        -2.207790        -2.577109         0.062293
 C        -3.317532        -3.669415         0.237270
 O        -3.490452        -4.574818         0.977924
 H         2.407366         0.029278         0.499774
 H         2.151196         0.081503        -1.193903
 H         1.964184         1.521586        -0.284544
 H        -2.514253        -0.246358         1.617911
 H        -2.892561         1.796630        -0.227893
 H        -3.346378         0.491777        -1.109938
 H        -4.398283         0.638522         0.247172
 H        -1.660195        -2.749033        -0.908018
 H        -1.472095        -2.421152         0.847991
 H        -4.080417        -3.437945        -0.479390
