19
Iteration:   100charge 0 multiplicity 1
 C         1.727064         0.303345        -0.139272
 C         0.237012         0.512987        -0.244498
 C        -0.867228         0.011457        -0.010366
 C        -2.351581        -0.133235         0.065910
 C        -3.149809         0.534231        -1.088062
 O        -2.840576        -1.468239        -0.067469
 C        -2.755539        -2.298349         1.135833
 C        -3.578015        -3.533108         1.086583
 O        -3.043393        -4.605930         0.920743
 H         2.357337         1.049657        -0.690302
 H         2.117879         0.148647         0.867905
 H         1.965755        -0.637768        -0.589656
 H        -2.750240         0.248416         0.982108
 H        -4.003255         1.142117        -0.709264
 H        -2.507308         1.108973        -1.652288
 H        -3.547257        -0.159457        -1.772894
 H        -1.694442        -2.574418         1.301890
 H        -3.081588        -1.652524         1.969124
 H        -4.706824        -3.476651         0.902046
