19
Iteration:  2474
 C         1.543353        -0.335977        -0.679497
 C         0.225504        -0.179272        -0.092204
 C        -1.038355        -0.305428         0.011402
 C        -2.530470        -0.084585         0.585594
 C        -3.221071         1.327297         0.312614
 O        -3.360885        -1.146549         0.186234
 C        -3.032774        -2.320079         0.948355
 C        -2.546989        -3.321527         0.018287
 O        -2.670353        -4.506365         0.351561
 H         2.111854        -1.305568        -0.350304
 H         1.356686        -0.588217        -1.749274
 H         2.262023         0.455901        -0.543863
 H        -2.367472        -0.137882         1.679823
 H        -4.325021         1.165822         0.460222
 H        -2.923009         2.223323         0.939962
 H        -3.041885         1.618439        -0.730004
 H        -2.307695        -1.960543         1.725051
 H        -3.935463        -2.630764         1.535080
 H        -1.978307        -2.979259        -0.906312
