19
Iteration:  3035charge 0 multiplicity 1
 C         1.004178        -0.848796        -0.869234
 C        -0.128415        -0.749551        -0.048826
 C        -1.200775        -0.536921         0.528022
 C        -2.559869        -0.034003         0.915412
 C        -2.842620         1.389058         0.437279
 O        -3.486864        -0.881595         0.351322
 C        -3.237047        -2.214113         0.711097
 C        -2.499820        -3.120389        -0.258355
 O        -1.752688        -4.017269         0.033136
 H         1.619469        -1.736277        -0.694592
 H         0.780543        -0.950834        -1.895482
 H         1.676972         0.029965        -0.734177
 H        -2.748530        -0.008653         2.004433
 H        -3.823545         1.668392         0.912802
 H        -2.109426         2.101364         0.765655
 H        -2.987169         1.492167        -0.691526
 H        -2.900339        -2.284608         1.753412
 H        -4.218131        -2.819986         0.685026
 H        -2.714521        -2.932979        -1.315248
