19
Iteration:  3587
 C         1.045129        -0.940337        -0.684239
 C        -0.047811        -0.659164         0.268012
 C        -1.050174        -0.056997         0.629180
 C        -2.552200         0.073716         0.996906
 C        -3.030059         1.470000         0.768918
 O        -3.329996        -0.850286         0.214549
 C        -3.091007        -2.285819         0.499681
 C        -2.304825        -3.187368        -0.446151
 O        -2.309879        -4.413233        -0.384374
 H         1.743823        -1.699493        -0.483665
 H         0.434425        -1.162571        -1.550693
 H         1.735030        -0.091192        -0.933342
 H        -2.582668        -0.246228         2.062046
 H        -2.249209         2.053934         1.259885
 H        -3.044141         1.560918        -0.350980
 H        -3.991034         1.672591         1.192052
 H        -2.640573        -2.417721         1.547149
 H        -4.135312        -2.747020         0.637573
 H        -1.505232        -2.876909        -1.142571
