19
Iteration:   861
 C         1.450646        -0.358705        -0.075395
 C         0.120450         0.212462         0.004818
 C        -1.104544         0.369247        -0.033791
 C        -2.611335         0.127158         0.228078
 C        -3.493312         1.065224        -0.622719
 O        -2.943606        -1.303224         0.057470
 C        -2.568702        -2.371893         1.081107
 C        -2.477201        -3.676777         0.292661
 O        -2.985090        -4.701663         0.701879
 H         2.058859        -0.306494         0.810830
 H         1.190266        -1.387300        -0.179314
 H         2.091276        -0.008645        -0.944251
 H        -2.861706         0.322837         1.293899
 H        -4.217159         1.527749        -0.004688
 H        -2.940858         1.917883        -1.049690
 H        -4.058696         0.506333        -1.435704
 H        -1.731515        -2.086267         1.644389
 H        -3.366015        -2.382550         1.791979
 H        -1.949056        -3.641551        -0.645664
