19
Iteration:   187charge 0 multiplicity 1
 C         1.679224         0.520781        -0.268224
 C         0.214634         0.300421         0.016511
 C        -0.955009        -0.070094         0.240178
 C        -2.441721        -0.158915         0.136567
 C        -2.941919         0.665197        -1.124156
 O        -3.066975        -1.423301        -0.002324
 C        -2.531724        -2.394194         0.819739
 C        -3.495358        -3.531513         0.869806
 O        -3.115773        -4.663872         1.075419
 H         2.073163        -0.273986        -1.001294
 H         1.834719         1.473053        -0.825139
 H         2.271193         0.466261         0.641181
 H        -2.767363         0.405614         1.115679
 H        -2.167833         0.764416        -1.932479
 H        -3.554352        -0.123183        -1.477887
 H        -3.536432         1.533032        -0.980515
 H        -1.597672        -2.726022         0.327798
 H        -2.325258        -2.147880         1.915053
 H        -4.509812        -3.185688         0.715760
