19
Iteration:  2674
 C         1.556041        -0.301826        -0.582136
 C         0.104680        -0.175019        -0.131087
 C        -1.058115        -0.236756         0.150402
 C        -2.463552        -0.031220         0.706142
 C        -3.235757         1.040027        -0.168170
 O        -3.298443        -1.181262         0.788800
 C        -2.653321        -2.439357         1.176071
 C        -2.711011        -3.196664        -0.146157
 O        -2.897986        -4.363716        -0.116223
 H         1.792499        -0.702915        -1.598949
 H         2.057095         0.644650        -0.500278
 H         2.129418        -0.860225         0.222078
 H        -2.339278         0.323941         1.762522
 H        -4.162473         1.375117         0.247253
 H        -2.517060         1.902712        -0.241379
 H        -3.385056         0.650505        -1.157106
 H        -1.580067        -2.382991         1.652913
 H        -3.439790        -2.851008         1.807434
 H        -2.746902        -2.507089        -1.088081
