19
Iteration:  3821charge 0 multiplicity 1
 C         1.316118        -1.009322        -0.600991
 C        -0.067100        -0.705149         0.014863
 C        -1.148787        -0.477887         0.567122
 C        -2.523259        -0.101870         1.101059
 C        -2.892695         1.347051         0.872570
 O        -3.552529        -0.827672         0.370836
 C        -3.350215        -2.230800         0.531795
 C        -2.463245        -2.921900        -0.527282
 O        -1.987371        -4.034915        -0.506430
 H         1.347789        -2.120331        -0.640139
 H         1.364546        -0.637917        -1.655916
 H         2.021750        -0.646041         0.084885
 H        -2.439262        -0.392235         2.202642
 H        -2.577266         2.015425         1.661388
 H        -2.567285         1.619839        -0.125868
 H        -3.996558         1.327244         0.699636
 H        -3.076688        -2.504507         1.598823
 H        -4.357039        -2.620406         0.146982
 H        -2.371231        -2.235167        -1.406413
