19
Iteration:  3439
 C         1.401264        -0.688957        -0.313747
 C        -0.072253        -0.675246        -0.304970
 C        -1.213545        -0.511961         0.149976
 C        -2.474549        -0.108534         0.933922
 C        -2.838144         1.369167         0.462025
 O        -3.647876        -1.059661         0.648365
 C        -3.160114        -2.296655         0.819886
 C        -2.675065        -2.968933        -0.365776
 O        -2.085561        -4.035433        -0.424819
 H         2.031001         0.140464        -0.799424
 H         1.843049        -0.986517         0.683773
 H         1.797364        -1.531690        -0.868316
 H        -2.295926        -0.012084         2.008645
 H        -2.401177         2.007644         1.255941
 H        -2.344858         1.458391        -0.552036
 H        -3.884805         1.505183         0.491852
 H        -2.412107        -2.466264         1.692869
 H        -4.013807        -2.934217         1.134652
 H        -3.051081        -2.291068        -1.297345
