19
Iteration:   179
 C         1.627175         0.521054        -0.288482
 C         0.208165         0.227823         0.055252
 C        -0.926859        -0.169405         0.248821
 C        -2.422892        -0.057600         0.150509
 C        -3.011833         0.618731        -1.170134
 O        -3.007352        -1.431134        -0.006265
 C        -2.477907        -2.375167         0.909742
 C        -3.510507        -3.487138         0.864666
 O        -3.123451        -4.631070         1.027870
 H         2.080087        -0.082249        -1.102019
 H         1.709499         1.560657        -0.607121
 H         2.278010         0.371778         0.528629
 H        -2.873810         0.422538         1.045546
 H        -2.225047         0.980533        -1.797649
 H        -3.550495        -0.123524        -1.785137
 H        -3.697655         1.387981        -0.911782
 H        -1.544681        -2.860420         0.541636
 H        -2.186927        -1.918929         1.900406
 H        -4.583339        -3.312944         0.550253
