19
Iteration:   552
 C         1.641477         0.692309         0.042245
 C         0.253800         0.224089        -0.084000
 C        -0.935378        -0.064998        -0.126122
 C        -2.414553        -0.191137         0.165109
 C        -3.164852         0.753776        -0.788840
 O        -2.903674        -1.473034         0.050500
 C        -2.589273        -2.454129         1.005259
 C        -3.351470        -3.591037         0.472573
 O        -3.179246        -4.683989         0.874808
 H         2.074085         0.250478         0.910872
 H         2.270614         0.335538        -0.763661
 H         1.742932         1.738836        -0.000243
 H        -2.592579         0.163454         1.228088
 H        -4.194382         0.674681        -0.488954
 H        -2.714274         1.724480        -0.825158
 H        -3.011286         0.367089        -1.801915
 H        -1.509506        -2.824825         0.831138
 H        -2.692823        -2.283220         2.052172
 H        -4.183939        -3.295285        -0.248324
