19
Iteration:  4694charge 0 multiplicity 1
 C         1.747516        -0.524595         0.388573
 C         0.291430        -0.356472         0.612950
 C        -0.918030        -0.271539         0.622463
 C        -2.243502        -0.206075         1.049752
 C        -2.907826         1.127952         1.010072
 O        -3.116878        -1.054674         0.319948
 C        -2.704242        -2.428541         0.141333
 C        -3.427018        -3.015716        -0.978504
 O        -3.343841        -4.189892        -1.285425
 H         2.493655        -0.333341         1.189501
 H         2.189640        -1.387807        -0.017756
 H         1.896676         0.333014        -0.286030
 H        -2.272585        -0.565710         2.065482
 H        -2.445225         1.899722         1.642135
 H        -2.865444         1.572967         0.003309
 H        -3.995576         0.984643         1.246070
 H        -1.614865        -2.449306        -0.136390
 H        -2.931501        -2.969352         1.063737
 H        -4.018461        -2.278662        -1.606587
