19
Iteration:  1675charge 0 multiplicity 1
 C         1.565223         0.319206        -0.146635
 C         0.139769         0.159519        -0.094819
 C        -1.057424        -0.036954         0.184336
 C        -2.451685        -0.202751         0.452844
 C        -3.201955         1.047595         0.025887
 O        -2.816828        -1.390977        -0.243386
 C        -2.266403        -2.534944         0.290841
 C        -3.348937        -3.607685         0.230007
 O        -3.226946        -4.560030         0.932923
 H         1.855445         0.576452         0.848354
 H         1.954953        -0.573132        -0.536364
 H         1.733400         1.203081        -0.767844
 H        -2.543564        -0.301860         1.552942
 H        -3.425388         1.663292         0.898178
 H        -2.511512         1.541640        -0.727435
 H        -4.186981         0.962423        -0.421718
 H        -1.427672        -3.062596        -0.168287
 H        -1.981189        -2.410654         1.329167
 H        -4.171196        -3.337834        -0.423814
