19
Iteration:  1971charge 0 multiplicity 1
 C         1.412838        -0.752644        -0.236658
 C         0.034298        -0.176144        -0.174950
 C        -1.165725        -0.118020         0.039244
 C        -2.524924         0.161780         0.447348
 C        -3.387625         0.997574        -0.427532
 O        -3.370108        -1.011606         0.854098
 C        -2.901199        -2.354606         1.186682
 C        -2.599422        -3.180997        -0.096641
 O        -2.179097        -4.350077        -0.016831
 H         1.985782        -0.535739         0.763249
 H         1.248426        -1.832085        -0.236038
 H         1.964036        -0.382323        -1.124037
 H        -2.335227         0.565527         1.470622
 H        -4.330160         1.186762         0.097223
 H        -2.990238         1.964819        -0.376709
 H        -3.535371         0.631638        -1.444961
 H        -1.994942        -2.357282         1.771288
 H        -3.664485        -2.875282         1.777971
 H        -2.820668        -2.702847        -1.017967
