19
Iteration:  1104
 C         1.514913        -0.079727        -0.009552
 C         0.039373        -0.051706        -0.058146
 C        -1.120876        -0.008301         0.279327
 C        -2.620928         0.012883         0.267371
 C        -3.257473         1.184577        -0.565186
 O        -3.127673        -1.266430        -0.100267
 C        -2.565581        -2.243890         0.853089
 C        -3.134447        -3.664115         0.522926
 O        -2.453915        -4.646768         0.520481
 H         1.684315        -0.379523         1.047297
 H         1.745744        -1.120832        -0.465177
 H         2.214262         0.646679        -0.380646
 H        -2.952405         0.231339         1.304499
 H        -4.112516         1.768245        -0.146582
 H        -2.413725         1.731938        -0.997198
 H        -3.684694         0.772442        -1.437720
 H        -1.442490        -2.333189         0.685683
 H        -2.615044        -2.070527         1.928694
 H        -4.224256        -3.654231         0.180138
