19
Iteration:  4119
 C         1.200789        -1.182650        -0.271547
 C        -0.173115        -0.920648         0.256512
 C        -1.170258        -0.404699         0.748376
 C        -2.494715        -0.035552         1.167573
 C        -2.759451         1.436586         0.694544
 O        -3.530666        -0.886374         0.562027
 C        -3.134260        -2.338453         0.551897
 C        -2.626987        -2.828014        -0.773953
 O        -2.024799        -3.854519        -1.041775
 H         1.630595        -2.167577         0.148346
 H         1.030815        -1.169379        -1.441128
 H         1.808345        -0.288545        -0.023645
 H        -2.692345        -0.231422         2.232725
 H        -1.844045         2.104972         0.799106
 H        -3.054231         1.325344        -0.363784
 H        -3.447840         2.055200         1.347461
 H        -2.539300        -2.685066         1.396912
 H        -4.051394        -2.897725         0.678483
 H        -2.901421        -2.103491        -1.682023
