19
Iteration:  1743charge 0 multiplicity 1
 C         1.684367         0.094892        -0.189069
 C         0.219340         0.154090        -0.021593
 C        -0.949333         0.075726         0.035405
 C        -2.397139        -0.070778         0.498909
 C        -3.257013         0.983112        -0.079487
 O        -3.045029        -1.228573        -0.043438
 C        -2.624164        -2.385753         0.536998
 C        -3.332969        -3.690355         0.116942
 O        -2.928655        -4.673872         0.779232
 H         2.012697         1.132717        -0.438646
 H         2.086398        -0.380833         0.643438
 H         1.874851        -0.465259        -1.088432
 H        -2.473806        -0.089630         1.621885
 H        -4.334609         0.647709         0.012869
 H        -3.002738         1.937433         0.491016
 H        -3.144598         1.121823        -1.153739
 H        -1.547035        -2.459583         0.338178
 H        -2.782354        -2.379034         1.633040
 H        -4.082081        -3.777313        -0.682105
