19
Iteration:  4380charge 0 multiplicity 1
 C         1.700929        -0.418222         0.064178
 C         0.260043        -0.514519         0.491733
 C        -0.972339        -0.606835         0.668848
 C        -2.291461        -0.229242         1.010367
 C        -2.650964         1.283648         0.976014
 O        -3.434154        -0.849731         0.301720
 C        -3.328469        -2.319862         0.382627
 C        -3.062860        -3.111686        -0.896660
 O        -2.822943        -4.293340        -1.111587
 H         2.325882        -1.306435         0.223959
 H         1.912486        -0.061876        -0.991053
 H         2.138732         0.381944         0.703033
 H        -2.592838        -0.542378         2.011381
 H        -2.230614         1.817189         1.877681
 H        -2.333609         1.678144        -0.022978
 H        -3.775928         1.569629         0.824297
 H        -2.625197        -2.509885         1.098429
 H        -4.401012        -2.602376         0.534246
 H        -3.027766        -2.348356        -1.783725
