19
Iteration:   415
 C         1.524588         0.256583         0.045063
 C         0.095130        -0.094309         0.247869
 C        -1.107888         0.065652         0.141524
 C        -2.599938        -0.082257         0.149300
 C        -3.498229         0.943298        -0.715101
 O        -2.731953        -1.454157        -0.332146
 C        -2.099978        -2.588563         0.306713
 C        -3.074908        -3.622912         0.393756
 O        -3.197852        -4.217074         1.469102
 H         1.560489         0.756156        -0.930715
 H         1.948214         0.843996         0.866264
 H         2.140954        -0.618932         0.053771
 H        -2.877259        -0.014465         1.254499
 H        -4.361420         0.343042        -1.181559
 H        -3.888142         1.802538        -0.154459
 H        -2.916248         1.427598        -1.507941
 H        -1.176524        -2.987068        -0.231558
 H        -1.782783        -2.563870         1.373226
 H        -3.494060        -3.993603        -0.611659
