19
Iteration:   111
 C         1.693972         0.362952        -0.163313
 C         0.259558         0.374089        -0.218157
 C        -0.891734        -0.052583         0.028559
 C        -2.401231        -0.084505         0.055387
 C        -3.145204         0.613676        -1.160908
 O        -2.821176        -1.531102        -0.002326
 C        -2.664722        -2.334907         1.166782
 C        -3.580210        -3.497532         0.984760
 O        -3.058866        -4.580229         0.914615
 H         2.203329         1.094615        -0.857978
 H         1.952402         0.703446         0.839843
 H         1.979645        -0.635379        -0.412246
 H        -2.657278         0.377255         0.992198
 H        -3.814529         1.418505        -0.785562
 H        -2.523031         1.034179        -1.865556
 H        -3.697949        -0.198215        -1.527295
 H        -1.628365        -2.677148         1.387524
 H        -3.113461        -1.913462         2.102784
 H        -4.714602        -3.224630         1.144923
