19
Iteration:  3333
 C         1.233263        -0.976190        -0.542936
 C        -0.088900        -0.622321         0.034199
 C        -1.179462        -0.262143         0.454556
 C        -2.507902        -0.014096         0.900166
 C        -2.994519         1.344475         0.340017
 O        -3.468336        -0.968061         0.575959
 C        -3.232238        -2.393654         0.862628
 C        -2.551321        -3.004191        -0.349879
 O        -1.907961        -4.036478        -0.433106
 H         1.782412        -1.783042        -0.005532
 H         1.057853        -1.411328        -1.554930
 H         1.935809        -0.069492        -0.761695
 H        -2.374768         0.124266         1.987322
 H        -2.203569         1.715991        -0.359469
 H        -3.888905         1.126694        -0.330310
 H        -3.344426         2.100327         1.073426
 H        -2.930685        -2.585233         1.873528
 H        -4.266670        -2.756725         0.688877
 H        -2.728572        -2.448952        -1.362350
