19
Iteration:   750charge 0 multiplicity 1
 C         1.508814         0.021302        -0.119145
 C         0.120995        -0.009382         0.109805
 C        -1.108515         0.063801        -0.025656
 C        -2.540520         0.004468         0.297233
 C        -3.263602         0.903407        -0.696152
 O        -3.174821        -1.307475         0.245914
 C        -2.419671        -2.220434         0.862833
 C        -2.722769        -3.587034         0.222006
 O        -3.062940        -4.655965         0.779835
 H         1.870971        -0.790986        -0.709152
 H         1.667895         0.959297        -0.616814
 H         2.092011         0.042182         0.838905
 H        -2.633987         0.423931         1.297358
 H        -4.299777         0.538851        -0.860116
 H        -3.365716         1.917934        -0.280169
 H        -2.742154         0.782981        -1.597960
 H        -1.355999        -2.087583         0.628085
 H        -2.515146        -2.222726         1.931666
 H        -2.679850        -3.488702        -0.911442
