19
Iteration:  3716charge 0 multiplicity 1
 C         1.452997        -0.669974        -0.352857
 C        -0.057266        -0.741475        -0.118654
 C        -1.215368        -0.607233         0.239257
 C        -2.493688        -0.226823         0.994935
 C        -2.671480         1.272589         0.771118
 O        -3.650228        -0.913626         0.380542
 C        -3.442557        -2.294372         0.599830
 C        -2.675949        -2.909690        -0.476195
 O        -2.015722        -3.943634        -0.367199
 H         1.731781         0.270530        -0.948018
 H         1.788334        -0.408466         0.661479
 H         1.795546        -1.719374        -0.776405
 H        -2.218441        -0.536507         2.058298
 H        -1.663464         1.645962         0.543282
 H        -3.268025         1.459203        -0.180944
 H        -3.012166         1.722566         1.672303
 H        -3.104199        -2.649706         1.574890
 H        -4.404090        -2.842211         0.598753
 H        -2.603969        -2.301906        -1.406671
