19
Iteration:  2596charge 0 multiplicity 1
 C         1.280056        -0.528533        -0.584576
 C         0.072242        -0.069335         0.009248
 C        -1.110877        -0.186121         0.287075
 C        -2.469218         0.055969         0.595621
 C        -3.243191         1.108291        -0.089158
 O        -3.158193        -1.221029         0.526092
 C        -2.487706        -2.301791         1.111232
 C        -2.509220        -3.305836        -0.041634
 O        -2.999453        -4.384142        -0.058099
 H         1.894362         0.286939        -1.063360
 H         2.090060        -0.806922         0.069784
 H         1.064833        -1.242582        -1.378886
 H        -2.587000         0.334503         1.646464
 H        -4.270800         0.966176         0.278100
 H        -2.906684         2.047444         0.247341
 H        -3.385102         1.181843        -1.211297
 H        -1.355503        -2.161319         1.353693
 H        -3.105949        -2.618461         1.976107
 H        -2.163481        -2.791442        -0.933313
