19
Iteration:  4783
 C         1.780330        -0.081877         0.453294
 C         0.394931        -0.424865         0.714270
 C        -0.819520        -0.396888         0.688203
 C        -2.211139        -0.361740         0.966630
 C        -2.696513         1.028585         1.168999
 O        -3.037010        -1.037304         0.004303
 C        -2.918800        -2.434203         0.117758
 C        -3.702087        -3.082431        -0.867930
 O        -3.392757        -4.154984        -1.343318
 H         1.932621         0.768246        -0.245469
 H         2.142995         0.363520         1.381963
 H         2.304994        -0.992823         0.043875
 H        -2.218910        -0.964945         1.924890
 H        -1.987885         1.455303         1.852227
 H        -2.619903         1.430331         0.074261
 H        -3.747975         1.087290         1.468467
 H        -1.830831        -2.724825        -0.196266
 H        -3.164488        -2.791723         1.128929
 H        -4.733040        -2.719427        -1.041995
