19
Iteration:   515
 C         1.685401         0.583681        -0.009858
 C         0.266439         0.184077         0.144420
 C        -0.959202         0.079746         0.113798
 C        -2.445779        -0.085998         0.152612
 C        -3.282491         0.724106        -0.784894
 O        -2.955154        -1.366940        -0.143468
 C        -2.335511        -2.448707         0.632633
 C        -3.206645        -3.725064         0.492132
 O        -3.346830        -4.725974         1.119235
 H         2.403912        -0.270563         0.207382
 H         1.790390         0.910809        -1.064955
 H         1.936283         1.353167         0.737922
 H        -2.658070         0.099129         1.224769
 H        -4.168427         1.227087        -0.343374
 H        -2.893543         1.659913        -1.262239
 H        -3.751658        -0.019402        -1.478864
 H        -1.306245        -2.824771         0.230391
 H        -2.245725        -2.070025         1.679641
 H        -3.806630        -3.552162        -0.488440
