19
Iteration:  1602
 C         1.654426         0.617100        -0.217634
 C         0.282001         0.298163         0.230771
 C        -0.953876         0.101458         0.168345
 C        -2.296200        -0.154981         0.361120
 C        -3.235858         0.974608        -0.118890
 O        -2.861282        -1.518554         0.070222
 C        -2.199838        -2.772197         0.086668
 C        -3.461547        -3.773011         0.092350
 O        -3.507354        -4.496274         1.025091
 H         2.210803        -0.407518        -0.215486
 H         1.479283         1.002901        -1.231992
 H         2.158242         1.310069         0.495439
 H        -2.311836        -0.255728         1.457110
 H        -2.835555         1.736793        -0.827856
 H        -4.009907         0.367285        -0.724399
 H        -3.693484         1.539917         0.641806
 H        -1.453761        -2.845800        -0.764337
 H        -1.796602        -3.291006         1.026293
 H        -4.186033        -3.636543        -0.666159
