19
Iteration:   701
 C         1.506581         0.198506        -0.261566
 C         0.098003         0.219269         0.012959
 C        -1.068225         0.264848         0.302712
 C        -2.492954         0.018885         0.396658
 C        -3.029705         0.822089        -0.754727
 O        -2.944202        -1.235687         0.040996
 C        -2.682597        -2.378700         0.910371
 C        -3.133496        -3.755978         0.303516
 O        -2.939295        -4.841966         0.797471
 H         1.668151         0.238270        -1.410931
 H         2.062824         1.096741         0.165923
 H         1.928309        -0.764173         0.065868
 H        -2.857366         0.370335         1.393492
 H        -4.014637         1.187265        -0.512159
 H        -2.397961         1.689219        -0.904754
 H        -3.069415        -0.025520        -1.522117
 H        -1.665834        -2.420542         1.155548
 H        -3.194832        -2.438174         1.901986
 H        -3.550505        -3.580929        -0.725964
