19
Iteration:  4789
 C         1.788105        -0.069489         0.481298
 C         0.412914        -0.408075         0.699987
 C        -0.781446        -0.414708         0.723874
 C        -2.257664        -0.391224         0.996815
 C        -2.707927         1.003533         1.123765
 O        -3.036769        -1.008648        -0.009968
 C        -2.869806        -2.429046         0.124996
 C        -3.718521        -3.113191        -0.837476
 O        -3.433323        -4.152195        -1.367128
 H         1.891703         0.589798        -0.427723
 H         2.474590         0.595596         1.152025
 H         2.356367        -0.907036         0.104202
 H        -2.331991        -0.980849         1.943482
 H        -2.092136         1.492665         1.921079
 H        -2.584350         1.484812         0.217106
 H        -3.784085         0.896558         1.370028
 H        -1.856264        -2.667998        -0.094897
 H        -3.164124        -2.716123         1.162282
 H        -4.650250        -2.556008        -1.210619
