19
Iteration:   659charge 0 multiplicity 1
 C         1.516417         0.439612        -0.342776
 C         0.187430         0.160767         0.164563
 C        -0.985506        -0.112046         0.406051
 C        -2.421283        -0.067899         0.172853
 C        -3.124582         0.901951        -0.768115
 O        -2.743432        -1.479852        -0.089455
 C        -2.797526        -2.281860         1.021007
 C        -3.377257        -3.646779         0.483036
 O        -2.866883        -4.744438         0.734391
 H         1.427308         1.436294        -0.930535
 H         2.209946         0.526869         0.571714
 H         1.951512        -0.240508        -1.048820
 H        -2.999745         0.166336         1.058879
 H        -4.156535         0.980257        -0.421234
 H        -2.687739         1.880311        -0.476404
 H        -3.187217         0.627311        -1.849696
 H        -1.844197        -2.546054         1.488841
 H        -3.441868        -1.691011         1.735930
 H        -4.316846        -3.517250        -0.151135
