19
Iteration:  1118charge 0 multiplicity 1
 C         1.481486        -0.190998         0.011231
 C        -0.007395        -0.078850         0.127907
 C        -1.204289         0.055144         0.150165
 C        -2.656997         0.052524         0.308006
 C        -3.231840         1.124405        -0.611514
 O        -3.090297        -1.318241        -0.040688
 C        -2.412242        -2.259377         0.727844
 C        -3.088430        -3.566526         0.506804
 O        -2.516736        -4.640137         0.529131
 H         2.046061         0.136833         0.868620
 H         1.906389        -1.053295        -0.479154
 H         1.628988         0.636144        -0.687032
 H        -2.945655         0.185575         1.392628
 H        -3.861977         1.717959         0.084291
 H        -2.470482         1.883975        -0.844531
 H        -3.827683         0.697562        -1.468857
 H        -1.345223        -2.329085         0.540855
 H        -2.655317        -1.918235         1.752254
 H        -4.173648        -3.488280         0.303714
