19
Iteration:  4038
 C         1.272323        -1.252811        -0.392571
 C        -0.104509        -0.888281         0.002065
 C        -1.143375        -0.667983         0.636333
 C        -2.435947        -0.097363         1.037599
 C        -2.771374         1.339232         0.652825
 O        -3.710348        -0.997274         0.676611
 C        -3.540657        -2.369510         0.547212
 C        -2.532010        -2.597487        -0.629558
 O        -1.751692        -3.503156        -0.757392
 H         1.250590        -1.650688        -1.383074
 H         1.987688        -0.475303        -0.325330
 H         1.447920        -2.031472         0.383824
 H        -2.599537        -0.066825         2.138503
 H        -2.205263         1.869676         1.393224
 H        -2.430000         1.674262        -0.327002
 H        -3.814234         1.391560         0.785961
 H        -3.080460        -2.863945         1.398504
 H        -4.531687        -2.755177         0.267168
 H        -2.406381        -1.859357        -1.381909
