19
Iteration:  3147charge 0 multiplicity 1
 C         1.122395        -1.046224        -0.617958
 C        -0.236758        -0.881418        -0.254374
 C        -1.247411        -0.342929         0.146595
 C        -2.445792         0.042129         0.852929
 C        -2.970007         1.435759         0.658975
 O        -3.574279        -0.928773         0.430802
 C        -3.313017        -2.268658         0.786216
 C        -2.377777        -3.008191        -0.272197
 O        -1.678621        -3.981341        -0.095767
 H         1.604827        -0.098397        -0.619507
 H         1.553143        -1.663974         0.163022
 H         1.160189        -1.487245        -1.662193
 H        -2.289022        -0.010062         1.963144
 H        -3.907703         1.493359         1.226486
 H        -2.221258         2.229858         0.976760
 H        -3.132999         1.586083        -0.416228
 H        -2.898993        -2.330715         1.828213
 H        -4.281057        -2.932019         0.726446
 H        -2.752280        -2.588162        -1.238497
