19
Iteration:  1687
 C         1.542454         0.280453        -0.165938
 C         0.149523         0.119327        -0.039031
 C        -1.056445         0.029810         0.125814
 C        -2.452768        -0.161537         0.438031
 C        -3.181549         1.150564         0.062223
 O        -2.858245        -1.342066        -0.371597
 C        -2.319573        -2.518787         0.359075
 C        -3.276498        -3.639320         0.291997
 O        -3.227288        -4.714130         0.941208
 H         1.976987         0.711797         0.728285
 H         2.149096        -0.549128        -0.283475
 H         1.849445         0.912420        -0.990813
 H        -2.727755        -0.479659         1.449457
 H        -3.454768         1.549554         1.035314
 H        -2.540258         2.021461        -0.340400
 H        -4.022692         0.919564        -0.556463
 H        -1.367596        -2.662279        -0.111460
 H        -2.134098        -2.315936         1.420208
 H        -4.085653        -3.565785        -0.409458
