19
Iteration:   263charge 0 multiplicity 1
 C         1.627899         0.445013        -0.011705
 C         0.207174         0.034765         0.045741
 C        -1.017842        -0.035720        -0.045135
 C        -2.500284        -0.166678         0.062414
 C        -3.140421         0.810121        -0.840574
 O        -3.060251        -1.418390        -0.226674
 C        -2.311726        -2.428815         0.554211
 C        -3.329390        -3.488054         0.812247
 O        -3.116310        -4.579389         1.312822
 H         2.088277        -0.064859         0.895523
 H         2.193619         0.070230        -0.895464
 H         1.728333         1.532445         0.064456
 H        -2.691108         0.199372         1.034688
 H        -4.212922         0.402509        -0.881660
 H        -3.044863         1.857029        -0.536141
 H        -2.731724         0.617951        -1.844267
 H        -1.478277        -2.836030        -0.018269
 H        -2.012986        -1.984719         1.482686
 H        -4.303004        -3.108213         0.338564
