19
Iteration:   401charge 0 multiplicity 1
 C         1.543101         0.198416         0.089871
 C         0.104095        -0.084353         0.235777
 C        -1.087129         0.112917         0.063116
 C        -2.556314        -0.051494         0.163087
 C        -3.495984         0.810129        -0.690328
 O        -2.808905        -1.433294        -0.365093
 C        -2.023124        -2.460789         0.298255
 C        -3.072936        -3.643027         0.460435
 O        -3.251317        -4.257570         1.467991
 H         1.693998         1.034396        -0.545135
 H         1.886737         0.594538         1.052869
 H         2.215099        -0.619094        -0.347548
 H        -2.962666        -0.042692         1.168995
 H        -4.008995         0.189745        -1.402650
 H        -4.236428         1.175607         0.003804
 H        -2.960201         1.599529        -1.239060
 H        -1.354285        -2.797523        -0.518232
 H        -1.420090        -1.997434         1.132576
 H        -3.690474        -3.881350        -0.443923
