19
Iteration:  2181
 C         0.834743        -1.470257        -0.641131
 C        -0.211671        -0.587970        -0.151918
 C        -1.371984        -0.118796         0.064420
 C        -2.701587         0.028744         0.565604
 C        -3.083993         1.506040         0.421086
 O        -3.604403        -1.039929         0.089548
 C        -3.361807        -2.373292         0.630751
 C        -2.050105        -3.039698         0.049554
 O        -1.216401        -3.750528         0.599000
 H         0.567114        -2.546304        -0.390298
 H         0.943496        -1.372547        -1.737224
 H         1.783935        -1.271467        -0.186979
 H        -2.670247        -0.101310         1.688738
 H        -3.984345         1.735001         0.943034
 H        -2.265404         2.058746         0.954840
 H        -3.127376         1.797235        -0.577168
 H        -3.537727        -2.370540         1.737195
 H        -4.108544        -3.100266         0.202896
 H        -1.928522        -2.699620        -0.987360
