19
Iteration:  4046
 C         1.265981        -1.255514        -0.385287
 C        -0.058337        -0.840132         0.061905
 C        -1.119927        -0.634723         0.623878
 C        -2.484792        -0.128273         1.045739
 C        -2.751311         1.258496         0.628749
 O        -3.648896        -0.965338         0.675311
 C        -3.522331        -2.363169         0.508149
 C        -2.586928        -2.600589        -0.630763
 O        -1.766285        -3.518675        -0.767705
 H         1.092901        -1.775573        -1.301769
 H         1.883443        -0.410800        -0.527933
 H         1.632045        -1.906468         0.389293
 H        -2.591235        -0.368195         2.149919
 H        -2.437131         2.037690         1.293195
 H        -2.368194         1.379686        -0.367762
 H        -3.828815         1.488228         0.872907
 H        -3.228254        -2.819265         1.506196
 H        -4.586339        -2.725850         0.393937
 H        -2.668599        -1.573394        -1.255482
