19
Iteration:   147charge 0 multiplicity 1
 C         1.538928         0.527920        -0.254464
 C         0.247872        -0.111551         0.082746
 C        -0.959571         0.056142        -0.040048
 C        -2.436257        -0.058248         0.095119
 C        -3.030126         0.603760        -1.156890
 O        -2.893579        -1.507210         0.024030
 C        -2.448089        -2.252383         1.168003
 C        -3.359202        -3.446675         0.879393
 O        -3.234134        -4.657721         0.907558
 H         1.616245         0.641831        -1.340171
 H         1.491457         1.494071         0.228145
 H         2.424444         0.096676         0.158365
 H        -2.810211         0.278393         1.007459
 H        -2.761397         1.653268        -1.157981
 H        -2.660336         0.070652        -2.071474
 H        -4.119541         0.553442        -1.141209
 H        -1.368729        -2.409144         1.254888
 H        -2.825313        -1.757441         2.051239
 H        -4.442867        -3.050300         0.760841
