19
Iteration:  3079charge 0 multiplicity 1
 C         1.149063        -0.929648        -0.863875
 C        -0.147499        -0.638682        -0.171149
 C        -1.200981        -0.412197         0.415797
 C        -2.459253        -0.100269         0.986501
 C        -2.821029         1.259684         0.402557
 O        -3.571015        -0.919979         0.495534
 C        -3.505126        -2.331151         0.742811
 C        -2.505965        -2.997504        -0.228912
 O        -1.678975        -3.887071        -0.018718
 H         1.940328        -1.157220        -0.099196
 H         1.073585        -1.867390        -1.333685
 H         1.489141        -0.061397        -1.507616
 H        -2.359392        -0.267424         2.081328
 H        -3.897122         1.363761         0.109344
 H        -2.577000         2.031769         1.102763
 H        -2.087081         1.445254        -0.475406
 H        -3.392250        -2.643023         1.800338
 H        -4.598715        -2.676209         0.489409
 H        -2.535650        -2.649277        -1.274103
