19
Iteration:  4104
 C         1.213098        -1.180242        -0.366688
 C        -0.044967        -0.876423         0.308033
 C        -1.137905        -0.554187         0.791641
 C        -2.521408         0.021791         1.123146
 C        -2.773365         1.455573         0.676037
 O        -3.583749        -0.979912         0.614655
 C        -3.265104        -2.340192         0.512170
 C        -2.644865        -2.771238        -0.848397
 O        -1.951077        -3.788636        -0.932834
 H         1.495679        -2.186562        -0.257280
 H         1.334190        -1.022215        -1.381773
 H         2.087952        -0.725430         0.103967
 H        -2.533111         0.126927         2.268230
 H        -1.819998         1.970321         0.747889
 H        -3.170019         1.669057        -0.322825
 H        -3.615720         1.795884         1.194210
 H        -2.613947        -2.671800         1.338151
 H        -4.276753        -2.849793         0.615928
 H        -3.079867        -2.064882        -1.664054
