19
Iteration:  3014
 C         1.010209        -0.887453        -0.853861
 C        -0.086837        -0.603382         0.039376
 C        -1.191944        -0.399324         0.390840
 C        -2.461091         0.005479         0.971321
 C        -2.864992         1.410021         0.526456
 O        -3.618544        -0.940656         0.229945
 C        -3.290418        -2.262015         0.773695
 C        -2.417412        -3.144805        -0.257593
 O        -1.797669        -4.132430         0.028088
 H         1.175649        -1.942687        -0.926017
 H         0.844239        -0.633565        -1.845542
 H         2.087727        -0.543923        -0.730708
 H        -2.581159        -0.128185         2.032359
 H        -3.709526         1.987079         0.978700
 H        -1.990999         1.999514         0.419543
 H        -3.213577         1.256637        -0.574118
 H        -2.627966        -2.110860         1.622894
 H        -4.190371        -2.837778         1.099931
 H        -2.343500        -2.501444        -1.363346
