19
Iteration:  4316
 C         1.549718        -0.680114        -0.115830
 C         0.148744        -0.557855         0.470459
 C        -0.972785        -0.428445         0.915374
 C        -2.367719        -0.048829         1.196803
 C        -2.777744         1.329307         0.861975
 O        -3.350739        -0.857379         0.253620
 C        -3.321548        -2.336961         0.372616
 C        -2.778595        -3.085742        -0.841004
 O        -2.742748        -4.284684        -1.182054
 H         1.525636        -1.029454        -1.145646
 H         2.152837         0.247307         0.054967
 H         1.999728        -1.393622         0.495666
 H        -2.444147        -0.188325         2.264797
 H        -2.073972         1.964332         1.362577
 H        -2.779322         1.561605        -0.246152
 H        -3.831418         1.405038         1.245123
 H        -2.807790        -2.935146         1.209498
 H        -4.415324        -2.551630         0.749699
 H        -2.450109        -2.308397        -1.578956
