19
Iteration:  2407
 C         1.354277        -0.308789        -0.616198
 C        -0.051851        -0.170811        -0.364795
 C        -1.112700        -0.361062         0.193990
 C        -2.416250        -0.114499         0.632139
 C        -2.784251         1.347653         0.216591
 O        -3.408521        -1.053246         0.213009
 C        -3.483541        -2.336481         0.816996
 C        -2.569406        -3.421886         0.061482
 O        -2.242904        -4.482808         0.486155
 H         1.528295        -0.934335        -1.571903
 H         1.785756         0.680811        -0.952977
 H         1.872485        -0.662359         0.308681
 H        -2.459397        -0.197430         1.753112
 H        -3.535683         1.690783         0.937311
 H        -1.777711         1.946816         0.144680
 H        -3.182557         1.346680        -0.782499
 H        -3.088452        -2.463837         1.865998
 H        -4.559814        -2.614769         0.626932
 H        -2.243924        -3.042684        -0.872079
