19
Iteration:  1211
 C         1.413009        -0.123741         0.190305
 C         0.037667         0.173911        -0.086598
 C        -1.154814         0.151621         0.061576
 C        -2.561948         0.072351         0.459541
 C        -3.248458         1.039349        -0.547546
 O        -3.019816        -1.310153         0.251664
 C        -2.152747        -2.386598         0.260381
 C        -3.149592        -3.581356         0.375325
 O        -2.848257        -4.732657         0.676303
 H         2.120976         0.392592        -0.502742
 H         1.598209         0.254651         1.221910
 H         1.610138        -1.198064         0.177444
 H        -2.762959         0.359290         1.534516
 H        -4.255179         0.637866        -0.904799
 H        -3.538320         1.964152         0.002812
 H        -2.618087         1.228570        -1.377677
 H        -1.621558        -2.508409        -0.694478
 H        -1.539587        -2.369385         1.166746
 H        -4.157068        -3.444920        -0.090758
