19
Iteration:   964
 C         1.524145         0.024718        -0.362116
 C         0.043631         0.048845         0.098350
 C        -1.186617        -0.152924         0.303827
 C        -2.614328         0.081724         0.355177
 C        -2.839832         1.246886        -0.686940
 O        -3.384335        -1.128382         0.003155
 C        -3.027715        -2.382590         0.931564
 C        -2.680433        -3.777158         0.206244
 O        -2.558800        -4.822800         0.884208
 H         1.621487         0.299872        -1.433532
 H         2.173512         0.733954         0.237559
 H         1.909284        -0.929618        -0.126345
 H        -2.903642         0.402015         1.378458
 H        -4.004263         1.503985        -0.763573
 H        -2.174173         2.035988        -0.200400
 H        -2.404619         1.131180        -1.706780
 H        -2.173948        -1.950393         1.456979
 H        -3.804615        -2.517774         1.682091
 H        -2.636777        -3.796381        -0.933256
