19
Iteration:   235charge 0 multiplicity 1
 C         1.606368         0.466434        -0.083525
 C         0.188780         0.228289        -0.081077
 C        -0.977607        -0.016878         0.100468
 C        -2.440058         0.006236         0.035321
 C        -3.050386         0.992601        -1.097283
 O        -2.972822        -1.379787        -0.051052
 C        -2.429718        -2.558722         0.654415
 C        -3.496964        -3.714945         0.903350
 O        -3.117865        -4.815873         1.283571
 H         2.114463        -0.404685         0.312533
 H         1.992154         0.577653        -1.084384
 H         1.835530         1.349298         0.544984
 H        -2.717350         0.588713         0.995737
 H        -3.484368         0.495989        -1.908763
 H        -3.699505         1.780129        -0.656176
 H        -2.113087         1.455143        -1.430450
 H        -1.672189        -3.044012        -0.006803
 H        -1.971316        -2.316761         1.669739
 H        -4.503470        -3.423790         0.614453
