19
Iteration:  2810
 C         1.316530        -0.611992        -0.731312
 C         0.024995        -0.286911        -0.068887
 C        -1.090576        -0.160312         0.332379
 C        -2.506803         0.061283         0.775754
 C        -3.056151         1.309858         0.096726
 O        -3.314891        -1.181545         0.551052
 C        -2.882425        -2.394973         1.127967
 C        -2.742255        -3.211245        -0.155878
 O        -2.420712        -4.373915        -0.175488
 H         2.203061        -0.329410        -0.211808
 H         1.424892        -1.690743        -1.045066
 H         1.342623         0.078313        -1.550727
 H        -2.508583         0.180665         1.871328
 H        -4.141431         1.429848         0.266525
 H        -2.584539         2.176547         0.450167
 H        -2.945483         1.168278        -1.018996
 H        -1.950496        -2.444066         1.776587
 H        -3.659843        -2.721203         1.885253
 H        -3.018801        -2.643519        -1.031274
