19
Iteration:    75
 C         1.706022         0.240035        -0.173849
 C         0.273670         0.340157        -0.084668
 C        -0.921317         0.254451        -0.210007
 C        -2.330110        -0.090534        -0.009666
 C        -3.159880         0.616604        -1.038761
 O        -2.848401        -1.541097        -0.089391
 C        -2.761469        -2.258907         1.188548
 C        -3.514431        -3.563111         1.021546
 O        -3.043477        -4.662912         1.013177
 H         2.209955         1.191504        -0.117817
 H         2.085820        -0.434476         0.642116
 H         2.107007        -0.308055        -1.104547
 H        -2.682663         0.216691         1.020239
 H        -4.204848         0.421663        -0.939873
 H        -2.884454         1.694176        -1.110485
 H        -2.848148         0.223342        -2.042475
 H        -1.714554        -2.231076         1.559994
 H        -3.480023        -1.757377         1.915476
 H        -4.676914        -3.442982         1.013142
