19
Iteration:  1521charge 0 multiplicity 1
 C         1.568899         0.766512        -0.178605
 C         0.273589         0.090937         0.037879
 C        -0.932134        -0.003766         0.069773
 C        -2.351698        -0.210907         0.360067
 C        -3.167960         1.063770         0.015790
 O        -2.740268        -1.485182        -0.249328
 C        -2.413756        -2.616025         0.525095
 C        -3.268917        -3.785969         0.145434
 O        -3.595581        -4.676738         0.910816
 H         1.746403         0.947416        -1.213592
 H         1.528182         1.726486         0.364683
 H         2.418489         0.223124         0.257960
 H        -2.347755        -0.389947         1.443231
 H        -3.893241         0.885527        -0.807445
 H        -3.484166         1.723168         0.837084
 H        -2.293865         1.709526        -0.465442
 H        -1.317043        -2.885364         0.446724
 H        -2.669187        -2.513696         1.610852
 H        -3.680882        -3.730847        -0.838529
