19
Iteration:  4741charge 0 multiplicity 1
 C         1.805641        -0.278208         0.518251
 C         0.410706        -0.282012         0.440703
 C        -0.766787        -0.384725         0.664306
 C        -2.245186        -0.290945         1.039697
 C        -2.686919         1.199591         1.175234
 O        -3.273751        -0.980222         0.162953
 C        -2.852965        -2.380813         0.173146
 C        -3.648302        -3.233360        -0.963611
 O        -3.311929        -4.308006        -1.418871
 H         2.269912         0.593872         0.981372
 H         2.041648        -0.936856         1.350887
 H         2.426045        -0.511350        -0.351862
 H        -2.424606        -0.786141         1.962705
 H        -1.875180         1.844534         1.526459
 H        -3.090874         1.662036         0.195485
 H        -3.525855         1.208338         1.871845
 H        -1.803423        -2.346466         0.073019
 H        -3.158722        -2.796157         1.178500
 H        -4.558467        -2.724681        -1.410828
