19
Iteration:  4494charge 0 multiplicity 1
 C         1.662648        -0.557963         0.157477
 C         0.287824        -0.412609         0.510002
 C        -0.868492        -0.033118         0.620288
 C        -2.227840        -0.225421         1.024642
 C        -2.865811         1.177404         1.003873
 O        -3.227478        -1.012300         0.223162
 C        -3.153108        -2.403068         0.402768
 C        -3.019438        -3.089556        -0.988057
 O        -3.160901        -4.288563        -1.126668
 H         2.366425         0.327208         0.113900
 H         2.029423        -1.238535         0.911629
 H         1.849075        -1.096683        -0.774191
 H        -2.133512        -0.668118         2.065910
 H        -2.443226         1.700771         1.944721
 H        -2.710947         1.732606         0.028132
 H        -3.901813         1.303311         1.283119
 H        -2.367906        -2.527874         1.086862
 H        -3.996596        -3.013422         0.796532
 H        -3.134243        -2.376384        -1.898772
