19
Iteration:  3917charge 0 multiplicity 1
 C         0.962566        -1.494708        -0.496553
 C        -0.166612        -0.698203         0.100953
 C        -1.093377        -0.060997         0.560593
 C        -2.502399        -0.016610         1.086004
 C        -3.142193         1.371522         1.015236
 O        -3.299958        -0.875995         0.387055
 C        -3.106716        -2.234160         0.431649
 C        -2.337900        -2.847076        -0.690601
 O        -1.970102        -3.983371        -0.579530
 H         1.870886        -1.201418         0.044857
 H         0.720585        -2.542069        -0.335274
 H         0.974759        -1.241443        -1.659504
 H        -2.465951        -0.517754         2.052092
 H        -2.410331         2.095902         1.271729
 H        -3.282459         1.426936        -0.034604
 H        -4.187863         1.458955         1.412043
 H        -2.839586        -2.547310         1.426684
 H        -4.158188        -2.447223         0.271886
 H        -2.088584        -2.155502        -1.554713
