19
Iteration:  3680charge 0 multiplicity 1
 C         1.399259        -0.760659        -0.401428
 C         0.007860        -0.630874         0.049190
 C        -1.233023        -0.506065         0.112303
 C        -2.350136        -0.064471         0.906375
 C        -2.827483         1.393876         0.815501
 O        -3.599274        -0.900515         0.499424
 C        -3.419540        -2.356773         0.529759
 C        -2.633955        -3.033562        -0.505965
 O        -2.060215        -4.129129        -0.354125
 H         2.037576         0.213415        -0.410705
 H         1.950181        -1.479669         0.264852
 H         1.612636        -1.269077        -1.344949
 H        -2.214896        -0.361028         2.000844
 H        -2.112388         1.974759         1.444352
 H        -2.904701         1.800268        -0.173052
 H        -3.833686         1.622853         1.337777
 H        -3.043014        -2.595643         1.546344
 H        -4.438397        -2.666293         0.311180
 H        -2.666180        -2.466259        -1.466579
