19
Iteration:  2206charge 0 multiplicity 1
 C         0.870642        -1.406200        -0.675822
 C        -0.219550        -0.545851        -0.276541
 C        -1.272523        -0.264646         0.181750
 C        -2.605236        -0.027281         0.736648
 C        -3.220475         1.363558         0.408581
 O        -3.505130        -0.921269         0.101981
 C        -3.282704        -2.286707         0.470998
 C        -2.031405        -3.042991        -0.116335
 O        -1.436495        -3.703259         0.764479
 H         0.843419        -2.215651         0.067613
 H         0.687840        -1.943523        -1.665755
 H         1.918221        -0.937843        -0.590305
 H        -2.583792        -0.200934         1.841622
 H        -4.011469         1.563282         1.166727
 H        -2.541655         2.233830         0.394311
 H        -3.767019         1.178929        -0.519324
 H        -3.248460        -2.315939         1.564427
 H        -4.090659        -2.949008         0.198770
 H        -1.822524        -3.072378        -1.142982
