19
Iteration:  3721
 C         1.422636        -0.664235        -0.331875
 C        -0.048153        -0.730796        -0.154530
 C        -1.196223        -0.669766         0.253884
 C        -2.469450        -0.229457         1.008149
 C        -2.642873         1.267997         0.762527
 O        -3.636830        -0.928618         0.347197
 C        -3.471789        -2.291680         0.649067
 C        -2.678655        -2.894843        -0.476475
 O        -2.011836        -3.918205        -0.373306
 H         1.593560         0.133014        -1.013788
 H         1.916483        -0.269413         0.591516
 H         1.614060        -1.653662        -0.606425
 H        -2.378916        -0.390753         2.088637
 H        -1.725597         1.831725         0.515543
 H        -3.365407         1.299643        -0.038414
 H        -3.043806         1.789682         1.681909
 H        -3.025394        -2.728768         1.584227
 H        -4.427430        -2.882992         0.365638
 H        -2.614684        -2.227450        -1.380919
