19
Iteration:  2803charge 0 multiplicity 1
 C         1.300862        -0.549184        -0.720988
 C         0.046316        -0.287397        -0.096271
 C        -1.112150        -0.240439         0.365896
 C        -2.480936         0.001934         0.699458
 C        -3.067934         1.313360         0.053880
 O        -3.304009        -1.157148         0.588423
 C        -2.828362        -2.435892         1.112502
 C        -2.744026        -3.190370        -0.109989
 O        -2.455804        -4.343388        -0.163934
 H         2.169896        -0.421711         0.059999
 H         1.154844        -1.595058        -1.062020
 H         1.387203         0.193814        -1.541425
 H        -2.614880         0.230889         1.787166
 H        -4.150739         1.356149         0.282515
 H        -2.407151         2.111082         0.608475
 H        -2.885595         1.423000        -1.053788
 H        -1.918512        -2.469858         1.682878
 H        -3.680778        -2.858811         1.724532
 H        -3.109820        -2.520114        -1.011888
