19
Iteration:  4775
 C         1.775703        -0.097455         0.452365
 C         0.376507        -0.413064         0.683419
 C        -0.814002        -0.385200         0.631140
 C        -2.203138        -0.388048         0.987587
 C        -2.688455         1.075755         1.176580
 O        -3.051857        -1.049935         0.030446
 C        -2.868651        -2.407195         0.119079
 C        -3.779888        -3.111923        -0.924000
 O        -3.337020        -4.176448        -1.337057
 H         1.807965         0.801196        -0.123001
 H         2.081645        -0.137607         1.494629
 H         2.421199        -0.906507         0.154750
 H        -2.384757        -0.858866         1.905725
 H        -1.969511         1.701603         1.775315
 H        -2.683701         1.663545         0.225222
 H        -3.637775         1.251521         1.681690
 H        -1.891351        -2.799644         0.037448
 H        -3.168968        -2.891670         1.103385
 H        -4.799155        -2.684677        -1.007629
