19
Iteration:  1871charge 0 multiplicity 1
 C         1.434990        -0.255767        -0.374149
 C         0.093230        -0.078968         0.042981
 C        -1.139350        -0.072994         0.315092
 C        -2.542854         0.117320         0.620968
 C        -3.116410         0.907277        -0.578525
 O        -3.320365        -1.128825         0.671360
 C        -2.588860        -2.303313         0.964935
 C        -2.938551        -3.427450        -0.051891
 O        -2.587745        -4.561899         0.155540
 H         1.547857        -1.327335        -0.612647
 H         1.552715         0.327053        -1.316611
 H         2.074853         0.014216         0.500697
 H        -2.675040         0.605891         1.593986
 H        -3.896290         1.553049        -0.238905
 H        -2.354972         1.668175        -0.850366
 H        -3.324505         0.316858        -1.410304
 H        -1.530714        -2.206801         0.806425
 H        -2.714505        -2.648966         1.997075
 H        -3.434663        -3.099962        -1.030212
