19
Iteration:  3342charge 0 multiplicity 1
 C         1.243552        -0.983444        -0.546735
 C        -0.024350        -0.623268         0.004107
 C        -1.113804        -0.358519         0.451825
 C        -2.454224         0.066068         0.953660
 C        -3.082277         1.323240         0.295102
 O        -3.450131        -1.022378         0.588446
 C        -3.268472        -2.340916         0.793474
 C        -2.592652        -3.001708        -0.353237
 O        -1.923659        -3.998827        -0.411885
 H         2.004224        -1.390213         0.180815
 H         1.273781        -1.474414        -1.488070
 H         1.787297         0.032279        -0.766789
 H        -2.480002         0.088985         2.059509
 H        -2.253953         1.801760        -0.282020
 H        -4.017422         1.042439        -0.305639
 H        -3.274302         1.902562         1.157213
 H        -2.983405        -2.578521         1.849913
 H        -4.241293        -2.857047         0.646473
 H        -3.160052        -2.404867        -1.139353
