19
Iteration:   833
 C         1.384820        -0.321779         0.048243
 C         0.100725         0.320613        -0.096587
 C        -1.093295         0.137599        -0.224751
 C        -2.531036         0.048775         0.263164
 C        -3.470465         0.894084        -0.529715
 O        -3.036328        -1.257960         0.109722
 C        -2.466052        -2.287230         1.014193
 C        -2.481314        -3.601822         0.291254
 O        -3.051289        -4.587018         0.684923
 H         1.401220        -0.838952         1.065463
 H         1.390113        -1.190095        -0.705724
 H         2.294251         0.232153        -0.059972
 H        -2.523701         0.359150         1.360148
 H        -4.388870         0.837679         0.157136
 H        -3.003204         1.869643        -0.744287
 H        -3.698674         0.513291        -1.554208
 H        -1.332283        -1.953200         1.180522
 H        -3.058368        -2.226790         2.006106
 H        -1.860351        -3.576275        -0.685305
