19
Iteration:   747
 C         1.539623         0.028549        -0.127936
 C         0.112335         0.046183         0.102564
 C        -1.099864         0.059951         0.020370
 C        -2.536691        -0.019606         0.304724
 C        -3.250897         0.898446        -0.717582
 O        -3.189160        -1.309133         0.243313
 C        -2.428401        -2.235854         0.866976
 C        -2.736510        -3.609327         0.217861
 O        -3.057222        -4.654308         0.779961
 H         1.877394        -0.818655        -0.819371
 H         1.802269         1.017209        -0.655970
 H         2.054778        -0.077422         0.829314
 H        -2.658236         0.462459         1.296459
 H        -4.340277         0.643967        -0.854333
 H        -3.334486         1.901827        -0.301449
 H        -2.805012         0.861798        -1.696402
 H        -1.403320        -2.122772         0.706025
 H        -2.520006        -2.195127         1.971526
 H        -2.794275        -3.505327        -0.907441
