19
Iteration:  3347
 C         1.300497        -0.948988        -0.550137
 C         0.023048        -0.639105        -0.019654
 C        -1.083818        -0.414417         0.457462
 C        -2.419052         0.068283         0.977332
 C        -3.115989         1.287212         0.280462
 O        -3.462131        -1.011941         0.587533
 C        -3.292446        -2.329448         0.795812
 C        -2.637709        -2.993746        -0.362221
 O        -1.928318        -3.973535        -0.400428
 H         1.903105        -1.247813         0.291834
 H         1.291240        -1.712713        -1.430570
 H         1.603982         0.100874        -0.768213
 H        -2.541850         0.106569         2.068586
 H        -2.476041         1.984727        -0.286459
 H        -3.987842         1.033269        -0.244032
 H        -3.360452         2.012405         1.168539
 H        -2.857509        -2.698900         1.727244
 H        -4.297881        -2.838792         0.758980
 H        -3.152951        -2.528204        -1.313148
