19
Iteration:   703
 C         1.508777         0.190337        -0.260408
 C         0.097279         0.235817         0.005384
 C        -1.075222         0.245641         0.313092
 C        -2.472168         0.019661         0.404194
 C        -3.047772         0.827016        -0.781433
 O        -2.956105        -1.229231         0.054528
 C        -2.678725        -2.381941         0.913532
 C        -3.116732        -3.762042         0.292800
 O        -2.943787        -4.834270         0.800004
 H         1.684774         0.142855        -1.398352
 H         2.092855         1.077222         0.166354
 H         1.905354        -0.741772         0.119430
 H        -2.838448         0.341774         1.386774
 H        -4.052154         1.172805        -0.493999
 H        -2.415854         1.687986        -0.871527
 H        -3.080082         0.049079        -1.535407
 H        -1.642965        -2.417628         1.097440
 H        -3.169745        -2.439084         1.900420
 H        -3.527210        -3.573457        -0.748011
