19
Iteration:  4058charge 0 multiplicity 1
 C         1.243428        -1.258011        -0.387896
 C        -0.018224        -0.783299         0.182714
 C        -1.162832        -0.562979         0.582122
 C        -2.458681        -0.252673         1.146715
 C        -2.778406         1.225768         0.621064
 O        -3.612776        -0.915820         0.626092
 C        -3.506433        -2.346450         0.553274
 C        -2.604168        -2.609683        -0.639739
 O        -1.825445        -3.514551        -0.792556
 H         1.083128        -1.941171        -1.169172
 H         1.763398        -0.475655        -0.823214
 H         1.934602        -1.701610         0.313821
 H        -2.345993        -0.217525         2.265418
 H        -2.153698         1.909581         1.100943
 H        -2.485442         1.253562        -0.424821
 H        -3.847988         1.355145         0.532754
 H        -3.121318        -2.875433         1.456583
 H        -4.513634        -2.688743         0.194662
 H        -2.717785        -1.864457        -1.572069
