19
Iteration:  2091charge 0 multiplicity 1
 C         1.038531        -1.278082        -0.564383
 C        -0.158937        -0.599433        -0.085198
 C        -1.292924        -0.099186         0.162678
 C        -2.626486         0.154580         0.723034
 C        -3.169060         1.342279        -0.143562
 O        -3.563069        -1.032629         0.553518
 C        -3.265254        -2.393882         0.895651
 C        -2.244789        -3.011317         0.004372
 O        -1.431147        -3.932174         0.202436
 H         0.979841        -1.266564        -1.673550
 H         1.903171        -0.711479        -0.281912
 H         1.019934        -2.262672        -0.111015
 H        -2.483258         0.411602         1.791530
 H        -4.249170         1.593035        -0.135619
 H        -2.698108         2.224020         0.136118
 H        -2.899782         1.072176        -1.220008
 H        -3.184000        -2.592323         1.988575
 H        -4.210979        -2.893273         0.496331
 H        -2.463382        -2.706114        -1.058906
