19
Iteration:  2512
 C         1.335706        -0.459473        -0.556789
 C        -0.036235        -0.165260        -0.312084
 C        -1.071951         0.083301         0.217105
 C        -2.433649         0.076226         0.750356
 C        -3.153357         1.293044         0.121573
 O        -3.130868        -1.101380         0.249887
 C        -2.881043        -2.314226         1.034176
 C        -2.474283        -3.496541         0.043430
 O        -2.839092        -4.691553         0.122966
 H         1.873908        -0.565708         0.347140
 H         1.397740        -1.295186        -1.249075
 H         1.782604         0.422920        -1.114287
 H        -2.449906         0.074761         1.868461
 H        -4.176465         1.369776         0.452744
 H        -2.643095         2.237225         0.376094
 H        -3.108641         1.160456        -0.968436
 H        -1.998358        -2.391618         1.634212
 H        -3.707002        -2.523980         1.704303
 H        -1.733201        -3.224672        -0.675003
