19
Iteration:  4175charge 0 multiplicity 1
 C         1.343400        -1.306204        -0.225498
 C         0.055190        -0.653733         0.266592
 C        -1.066157        -0.290439         0.663359
 C        -2.484990         0.007304         1.031982
 C        -3.041324         1.389201         0.853688
 O        -3.491243        -0.928713         0.584316
 C        -3.045230        -2.301070         0.517198
 C        -2.474485        -2.789584        -0.844133
 O        -2.416996        -3.985366        -1.051902
 H         2.065086        -1.353132         0.645100
 H         1.101543        -2.421175        -0.464049
 H         1.951833        -0.935835        -1.059003
 H        -2.607833        -0.228222         2.058772
 H        -2.683004         2.053943         1.620036
 H        -2.967330         1.950618        -0.067840
 H        -4.152632         1.208638         0.942106
 H        -2.465988        -2.634612         1.370967
 H        -3.928492        -2.889891         0.644803
 H        -2.069834        -1.978257        -1.478153
