19
Iteration:  4028charge 0 multiplicity 1
 C         1.206955        -1.289499        -0.372553
 C        -0.141999        -0.899458        -0.013903
 C        -1.194388        -0.651594         0.588315
 C        -2.465099        -0.161828         1.067125
 C        -2.762849         1.401525         0.678384
 O        -3.734717        -0.938375         0.687932
 C        -3.459282        -2.373762         0.519143
 C        -2.478024        -2.577390        -0.657192
 O        -1.720765        -3.561563        -0.725457
 H         1.503057        -1.498575        -1.421942
 H         1.898899        -0.487423        -0.015553
 H         1.677478        -2.246458         0.055474
 H        -2.239999        -0.113957         2.140996
 H        -2.206358         2.061528         1.383984
 H        -2.570177         1.750170        -0.361149
 H        -3.798040         1.615361         0.792024
 H        -3.164562        -2.923356         1.399919
 H        -4.376736        -2.885880         0.232586
 H        -2.742658        -1.834336        -1.411778
