19
Iteration:  3791
 C         1.333084        -0.797957        -0.537335
 C        -0.003068        -0.726401         0.153406
 C        -1.147811        -0.508478         0.469031
 C        -2.454379        -0.131625         0.975665
 C        -2.748530         1.304405         0.749872
 O        -3.558870        -0.926317         0.539898
 C        -3.508273        -2.346406         0.413941
 C        -2.568031        -2.899202        -0.624518
 O        -2.003383        -3.951477        -0.376793
 H         1.107318        -1.639038        -1.267528
 H         1.466896        -0.047300        -1.299360
 H         1.978638        -1.131146         0.235091
 H        -2.258540        -0.297021         2.021495
 H        -1.913939         1.929775         1.095705
 H        -3.101941         1.391233        -0.324617
 H        -3.583443         1.516733         1.438484
 H        -3.414366        -2.812868         1.445044
 H        -4.578601        -2.527306         0.292260
 H        -2.381854        -2.266808        -1.533165
