19
Iteration:  3266
 C         0.955740        -1.221554        -0.607376
 C        -0.254056        -0.748592        -0.062213
 C        -1.168525        -0.145555         0.509701
 C        -2.536250         0.133681         0.980812
 C        -3.132604         1.421005         0.512406
 O        -3.426141        -0.918548         0.381812
 C        -2.993631        -2.275027         0.667533
 C        -2.213819        -2.962722        -0.320290
 O        -1.953153        -4.140694        -0.273067
 H         0.848157        -2.098149        -1.300510
 H         1.378008        -0.390378        -1.166530
 H         1.797117        -1.541207         0.129100
 H        -2.683887        -0.092708         2.024796
 H        -2.349930         2.100333         0.115909
 H        -3.735720         0.969666        -0.367387
 H        -3.841021         1.847514         1.197900
 H        -2.287695        -2.439979         1.480056
 H        -3.915475        -2.811618         0.882797
 H        -1.860598        -2.204072        -0.989225
