19
Iteration:   527
 C         1.621374         0.612936         0.009057
 C         0.274260         0.215594         0.071287
 C        -0.902531        -0.083091         0.120126
 C        -2.334431        -0.075005         0.151084
 C        -3.347469         0.731310        -0.800478
 O        -2.926574        -1.408854        -0.094135
 C        -2.387586        -2.373519         0.723352
 C        -3.260872        -3.665431         0.451844
 O        -3.318351        -4.738577         1.055264
 H         2.272767        -0.191276         0.452673
 H         2.017416         0.772289        -1.014621
 H         1.771444         1.542834         0.474327
 H        -2.660114         0.251254         1.166446
 H        -4.144111         0.869217        -0.115687
 H        -2.882183         1.543438        -1.390732
 H        -3.610802        -0.006117        -1.628726
 H        -1.235313        -2.388771         0.426958
 H        -2.363705        -2.202560         1.806770
 H        -4.062221        -3.418906        -0.329177
