19
Iteration:  3369
 C         1.447209        -0.835055        -0.480628
 C         0.026534        -0.695172        -0.039959
 C        -1.085720        -0.413837         0.398428
 C        -2.461145        -0.054270         0.858971
 C        -3.083933         1.220570         0.336602
 O        -3.529069        -0.954585         0.666270
 C        -3.323173        -2.311446         0.798109
 C        -2.797220        -3.048632        -0.509131
 O        -1.925453        -3.904788        -0.329009
 H         2.230290        -0.591629         0.238848
 H         1.556353        -1.959667        -0.853696
 H         1.704474        -0.167541        -1.394242
 H        -2.353055        -0.035523         1.960537
 H        -2.249894         1.790224        -0.128802
 H        -3.868274         0.959190        -0.341121
 H        -3.386548         1.892871         1.251969
 H        -2.526476        -2.439356         1.518136
 H        -4.175122        -2.841269         1.279224
 H        -3.171492        -2.400007        -1.359792
