19
Iteration:  2195
 C         0.858349        -1.477655        -0.644730
 C        -0.162494        -0.501402        -0.233792
 C        -1.360604        -0.210307         0.091324
 C        -2.685552         0.002322         0.746095
 C        -3.188091         1.436860         0.425018
 O        -3.539671        -1.001276         0.083104
 C        -3.273655        -2.324792         0.500715
 C        -2.056893        -3.032972         0.006752
 O        -1.348072        -3.720012         0.683050
 H         0.704084        -2.433023        -0.106188
 H         0.770302        -1.597596        -1.770521
 H         1.958969        -1.170460        -0.523471
 H        -2.585250        -0.246629         1.825444
 H        -4.013666         1.830558         1.049872
 H        -2.262567         2.064904         0.488421
 H        -3.445320         1.520857        -0.633678
 H        -3.215738        -2.464098         1.589228
 H        -4.143877        -2.797931         0.080421
 H        -1.955079        -3.047413        -1.023842
