19
Iteration:  2304charge 0 multiplicity 1
 C         1.178115        -0.802369        -0.739118
 C        -0.134151        -0.391595        -0.381539
 C        -1.222925        -0.391658         0.260486
 C        -2.591433        -0.123649         0.661388
 C        -2.880386         1.400848         0.418172
 O        -3.565033        -1.035735         0.049794
 C        -3.429985        -2.349050         0.550673
 C        -2.282388        -3.200434        -0.022650
 O        -1.817969        -4.011030         0.800398
 H         1.876065         0.006218        -0.780901
 H         1.614495        -1.439300         0.058890
 H         1.265332        -1.224936        -1.768479
 H        -2.682504        -0.283012         1.756405
 H        -3.968519         1.545795         0.322393
 H        -2.582476         1.930238         1.272218
 H        -2.386648         1.702052        -0.512890
 H        -3.203640        -2.400018         1.671164
 H        -4.390092        -2.922679         0.436017
 H        -1.895735        -3.068236        -1.097542
