19
Iteration:  2659
 C         1.475273        -0.300184        -0.501592
 C         0.017558        -0.235584        -0.229025
 C        -1.056592        -0.331191         0.260611
 C        -2.421170         0.118571         0.679161
 C        -3.248392         1.083208        -0.166916
 O        -3.180791        -1.107049         0.810991
 C        -2.643941        -2.357616         1.082277
 C        -2.623309        -3.286727        -0.127213
 O        -2.956849        -4.463035        -0.140797
 H         1.522551        -0.475193        -1.654765
 H         1.946985         0.675182        -0.130884
 H         1.881533        -1.167725        -0.001436
 H        -2.298534         0.623204         1.678945
 H        -4.265742         0.972001         0.344057
 H        -2.916384         2.098759        -0.064028
 H        -3.284238         0.777050        -1.288044
 H        -1.665531        -2.284947         1.588306
 H        -3.247668        -2.885149         1.877459
 H        -2.326636        -2.714840        -1.112891
