19
Iteration:  3764
 C         1.433422        -0.719504        -0.480846
 C        -0.006375        -0.668529         0.042393
 C        -1.163647        -0.614969         0.420491
 C        -2.461574        -0.236249         1.052434
 C        -2.652424         1.287833         0.704816
 O        -3.682398        -0.895798         0.484308
 C        -3.601347        -2.360596         0.487903
 C        -2.577848        -2.881591        -0.529020
 O        -1.972078        -3.914258        -0.403369
 H         1.378392        -0.975869        -1.521567
 H         1.955133         0.303965        -0.494500
 H         1.977747        -1.573498         0.042690
 H        -2.294464        -0.626605         2.122294
 H        -1.752043         1.775088         0.294711
 H        -3.303306         1.119643        -0.128203
 H        -3.045173         1.911094         1.543064
 H        -3.537521        -2.713556         1.555579
 H        -4.675277        -2.733236         0.352457
 H        -2.720370        -2.398095        -1.527945
