19
Iteration:  4911charge 0 multiplicity 1
 C         1.796087        -0.097506         0.440718
 C         0.466192        -0.300423         0.809692
 C        -0.727267        -0.177003         0.942113
 C        -2.239263        -0.461337         1.087666
 C        -3.027357         0.857097         1.162665
 O        -2.748820        -1.079154        -0.032429
 C        -2.542260        -2.539344        -0.113008
 C        -3.480782        -3.015446        -1.178559
 O        -4.028784        -4.080064        -1.128179
 H         2.543760        -0.749267         0.867470
 H         1.965935        -0.248619        -0.693173
 H         2.054179         0.971062         0.573925
 H        -2.433984        -1.034025         2.000327
 H        -2.468303         1.662967         1.539510
 H        -3.009862         1.149175         0.071656
 H        -3.914192         0.549209         1.699434
 H        -1.483929        -2.651498        -0.176384
 H        -2.853637        -3.072136         0.862758
 H        -3.783708        -2.422700        -2.114850
