19
Iteration:  2287charge 0 multiplicity 1
 C         1.198482        -0.986687        -0.819536
 C        -0.034797        -0.337056        -0.151666
 C        -1.295414        -0.300023         0.157086
 C        -2.697715        -0.141413         0.634996
 C        -2.936688         1.345655         0.476933
 O        -3.652009        -1.047793        -0.016513
 C        -3.367252        -2.325752         0.541763
 C        -2.211379        -3.131687         0.035956
 O        -1.741628        -3.950179         0.794920
 H         2.156245        -0.392927        -0.698208
 H         1.258546        -2.018127        -0.428431
 H         0.864228        -1.048395        -1.886417
 H        -2.728863        -0.375548         1.715406
 H        -3.973102         1.721543         0.545141
 H        -2.252941         1.869272         1.235312
 H        -2.410728         1.677434        -0.485366
 H        -3.206489        -2.147079         1.581494
 H        -4.191100        -3.035968         0.390010
 H        -1.919856        -2.951550        -0.998868
