19
Iteration:  3304
 C         1.105364        -1.123701        -0.602923
 C        -0.145881        -0.537695         0.056040
 C        -1.277462        -0.345764         0.490443
 C        -2.562555         0.059671         0.903628
 C        -2.944732         1.453771         0.408676
 O        -3.637628        -1.011428         0.515775
 C        -3.031462        -2.314046         0.732281
 C        -2.317856        -2.976288        -0.339276
 O        -1.940018        -4.127532        -0.369773
 H         1.181207        -2.199248        -0.527433
 H         1.037827        -0.914471        -1.706727
 H         1.906136        -0.598670        -0.208389
 H        -2.429712         0.179934         2.003380
 H        -2.111085         1.903266        -0.114049
 H        -3.696131         1.458074        -0.315873
 H        -3.224578         2.249786         1.155773
 H        -2.362989        -2.174568         1.614944
 H        -3.798345        -3.038327         1.086388
 H        -2.013425        -2.436280        -1.194725
