19
Iteration:  3752
 C         1.366552        -0.684656        -0.443381
 C         0.006784        -0.643860        -0.038391
 C        -1.137252        -0.738394         0.400722
 C        -2.451371        -0.238090         0.994161
 C        -2.669072         1.221624         0.701848
 O        -3.643635        -0.879529         0.465722
 C        -3.603840        -2.273435         0.577494
 C        -2.664334        -2.935443        -0.499449
 O        -1.930299        -3.912082        -0.425289
 H         1.477606        -0.734399        -1.535751
 H         2.006894         0.140710         0.006621
 H         1.919487        -1.628710         0.003908
 H        -2.619225        -0.267178         2.136717
 H        -1.730658         1.702730         0.364109
 H        -3.504207         1.470184         0.044050
 H        -3.027226         1.731331         1.595381
 H        -3.272148        -2.678695         1.560383
 H        -4.580123        -2.575654         0.086855
 H        -2.503169        -2.188649        -1.319141
