19
Iteration:   436charge 0 multiplicity 1
 C         1.494658         0.232768        -0.001407
 C         0.075082         0.141685         0.154264
 C        -1.143869         0.119228         0.278869
 C        -2.573653        -0.147821         0.174666
 C        -3.270418         0.845072        -0.662592
 O        -2.826542        -1.482352        -0.439273
 C        -2.108570        -2.461679         0.326746
 C        -3.076939        -3.736325         0.393980
 O        -3.245956        -4.296005         1.471130
 H         1.717047         0.337633        -1.054508
 H         1.798513         1.129316         0.559387
 H         2.035467        -0.549119         0.565899
 H        -3.096064        -0.220104         1.144106
 H        -4.390141         0.697073        -0.487172
 H        -2.944179         1.816163        -0.274552
 H        -2.973463         0.924007        -1.701092
 H        -1.082059        -2.595924        -0.136983
 H        -1.927280        -2.300410         1.438502
 H        -3.596570        -3.918328        -0.592268
