19
Iteration:  2613charge 0 multiplicity 1
 C         1.418498        -0.453493        -0.556405
 C        -0.001642        -0.282358        -0.137537
 C        -1.090464        -0.018024         0.248090
 C        -2.514764         0.075241         0.709207
 C        -3.259782         1.182707        -0.138994
 O        -3.233385        -1.203767         0.670373
 C        -2.498856        -2.403146         1.086639
 C        -2.477082        -3.335481        -0.137062
 O        -3.016414        -4.391673        -0.030428
 H         1.718081         0.332252        -1.297633
 H         2.164006        -0.385208         0.318561
 H         1.545081        -1.430670        -1.078352
 H        -2.469913         0.411276         1.776429
 H        -4.382644         1.120765        -0.159667
 H        -2.971511         2.225022         0.222809
 H        -2.885874         1.122961        -1.162152
 H        -1.502333        -2.265087         1.473728
 H        -3.011517        -3.014558         1.856102
 H        -1.988047        -2.989245        -1.146130
