19
Iteration:  4782charge 0 multiplicity 1
 C         1.779114        -0.083769         0.447880
 C         0.397803        -0.424681         0.714450
 C        -0.828601        -0.394736         0.682508
 C        -2.203669        -0.361151         0.962492
 C        -2.694997         1.033287         1.171620
 O        -3.038125        -1.040711         0.006609
 C        -2.919527        -2.430754         0.118934
 C        -3.706319        -3.081664        -0.875245
 O        -3.385944        -4.157395        -1.341145
 H         1.917027         0.791709        -0.240164
 H         2.115381         0.310925         1.443921
 H         2.315444        -1.002277         0.052953
 H        -2.227946        -0.971500         1.949621
 H        -1.985903         1.470812         1.838630
 H        -2.625174         1.435902         0.091069
 H        -3.744549         1.120384         1.492957
 H        -1.820507        -2.742225        -0.187630
 H        -3.159743        -2.808668         1.122266
 H        -4.756397        -2.720325        -1.022372
