19
Iteration:  4652charge 0 multiplicity 1
 C         1.624792        -0.596974         0.207716
 C         0.234510        -0.428676         0.527620
 C        -0.879435        -0.216279         0.967158
 C        -2.356713        -0.102061         1.182750
 C        -3.031136         1.181681         0.870108
 O        -2.977537        -1.112347         0.284172
 C        -2.584953        -2.439150         0.203807
 C        -3.176694        -3.000214        -1.048695
 O        -3.454930        -4.163527        -1.250980
 H         1.972590        -1.446849         0.887095
 H         1.670632        -0.913509        -0.902197
 H         2.298918         0.296542         0.412197
 H        -2.590384        -0.324936         2.310253
 H        -2.789375         1.883425         1.691262
 H        -2.707847         1.784365        -0.056365
 H        -4.145953         1.003077         0.885425
 H        -1.544098        -2.473885        -0.114491
 H        -2.666624        -3.203942         1.083675
 H        -3.415176        -2.174760        -1.772785
