19
Iteration:  1967charge 0 multiplicity 1
 C         1.433515        -0.744371        -0.220584
 C         0.045996        -0.156519        -0.179967
 C        -1.122642        -0.128715         0.016900
 C        -2.504017         0.145564         0.479806
 C        -3.411353         0.945354        -0.421073
 O        -3.380506        -1.038025         0.837042
 C        -2.882809        -2.338849         1.151540
 C        -2.636085        -3.176505        -0.101004
 O        -2.212447        -4.306818         0.016835
 H         1.900101        -0.559193         0.675423
 H         1.202663        -1.825796        -0.317717
 H         1.990488        -0.238146        -1.028886
 H        -2.247161         0.538906         1.464075
 H        -4.408525         1.064362         0.052188
 H        -2.999677         2.043845        -0.317555
 H        -3.452567         0.654529        -1.461414
 H        -1.954085        -2.288388         1.770423
 H        -3.574217        -3.012214         1.767687
 H        -2.883243        -2.612815        -1.045732
