19
Iteration:  4006charge 0 multiplicity 1
 C         1.130063        -1.276286        -0.345429
 C        -0.225866        -0.955983         0.093948
 C        -1.329808        -0.542707         0.375282
 C        -2.511421        -0.099669         1.127127
 C        -2.781921         1.281434         0.768604
 O        -3.616986        -0.896065         0.652245
 C        -3.335706        -2.203793         0.516361
 C        -2.444100        -2.645589        -0.710654
 O        -1.697210        -3.650774        -0.694025
 H         1.365634        -1.104995        -1.404999
 H         1.987198        -0.930619         0.269044
 H         1.239801        -2.434018        -0.400825
 H        -2.328757        -0.113991         2.205813
 H        -1.971525         1.846879         1.248022
 H        -2.681462         1.414112        -0.325957
 H        -3.766593         1.657160         0.997421
 H        -2.879310        -2.754436         1.319350
 H        -4.299948        -2.714653         0.393134
 H        -2.495079        -1.987657        -1.628609
