19
Iteration:  4759charge 0 multiplicity 1
 C         1.863525        -0.178856         0.563310
 C         0.348385        -0.386920         0.506803
 C        -0.843168        -0.419981         0.602927
 C        -2.278038        -0.281551         1.035978
 C        -2.667809         1.208808         1.210254
 O        -3.097161        -1.001470         0.089946
 C        -2.924861        -2.446664         0.113405
 C        -3.714128        -3.202216        -0.899297
 O        -3.316473        -4.243921        -1.396461
 H         2.071467         0.908261         0.340143
 H         2.362140        -0.328698         1.567535
 H         2.198981        -0.740036        -0.341508
 H        -2.277556        -0.800803         2.067602
 H        -1.808121         1.646590         1.688188
 H        -2.979152         1.598744         0.218627
 H        -3.563741         1.230450         1.876344
 H        -1.793470        -2.699041        -0.106152
 H        -3.194104        -2.807470         1.123954
 H        -4.679046        -2.802726        -1.274675
