19
Iteration:  3352
 C         1.359382        -0.912097        -0.557644
 C         0.028010        -0.662461        -0.030612
 C        -1.070137        -0.445312         0.472530
 C        -2.396567         0.034276         0.964778
 C        -3.121145         1.283772         0.307684
 O        -3.481212        -0.967620         0.588180
 C        -3.307533        -2.354664         0.813444
 C        -2.695466        -2.988143        -0.399709
 O        -1.928405        -3.950662        -0.387450
 H         1.911021        -1.207140         0.373337
 H         1.337374        -1.741045        -1.204521
 H         1.588308         0.088406        -0.949223
 H        -2.469872         0.149226         2.067735
 H        -2.644394         2.014457        -0.361666
 H        -4.053236         0.945216        -0.247169
 H        -3.511895         1.965153         1.015124
 H        -2.695269        -2.738209         1.700635
 H        -4.336499        -2.742606         0.890035
 H        -2.959776        -2.701821        -1.425485
