19
Iteration:   827
 C         1.450580        -0.307568         0.086744
 C         0.068958         0.244441        -0.148439
 C        -1.163560         0.134106        -0.211142
 C        -2.514214         0.024616         0.283687
 C        -3.490580         0.866800        -0.500693
 O        -3.066083        -1.255312         0.094805
 C        -2.400349        -2.202587         1.009434
 C        -2.493577        -3.554691         0.283097
 O        -3.066990        -4.599364         0.683536
 H         1.363398        -0.913751         0.969476
 H         1.604840        -0.994988        -0.720327
 H         2.413258         0.296102         0.084328
 H        -2.343602         0.334999         1.319847
 H        -4.461776         0.753504        -0.071739
 H        -3.040476         1.859352        -0.641240
 H        -3.493999         0.419492        -1.501874
 H        -1.387598        -2.008432         1.129081
 H        -2.981645        -2.192796         1.894756
 H        -1.896078        -3.550201        -0.623188
