19
Iteration:  2248charge 0 multiplicity 1
 C         1.102581        -1.182147        -0.834178
 C        -0.178801        -0.812454        -0.130761
 C        -1.227472        -0.265055         0.159382
 C        -2.621219         0.035429         0.716207
 C        -3.273226         1.400927         0.475171
 O        -3.416102        -0.965234        -0.028687
 C        -3.448788        -2.302398         0.496473
 C        -2.146645        -2.984839         0.153919
 O        -1.521604        -3.856574         0.718463
 H         1.965120        -1.123920        -0.154028
 H         1.098995        -2.172222        -1.308569
 H         1.342566        -0.554530        -1.684988
 H        -2.603743        -0.244883         1.797816
 H        -4.131998         1.474452         1.122587
 H        -2.589335         2.256204         0.640569
 H        -3.621896         1.418887        -0.503161
 H        -3.753149        -2.468116         1.577822
 H        -4.289278        -2.683493        -0.137691
 H        -1.710493        -2.616740        -0.888117
