19
Iteration:  2599charge 0 multiplicity 1
 C         1.295181        -0.496053        -0.589679
 C         0.037698        -0.110462        -0.004427
 C        -1.086672        -0.162178         0.280003
 C        -2.468535         0.060772         0.599649
 C        -3.245102         1.129693        -0.115455
 O        -3.166917        -1.219655         0.558984
 C        -2.477039        -2.348823         1.105005
 C        -2.505726        -3.298913        -0.057261
 O        -3.005899        -4.386959        -0.045808
 H         1.822264         0.257867        -1.075440
 H         2.022427        -0.762275         0.184208
 H         1.138556        -1.370103        -1.307583
 H        -2.565994         0.368013         1.646351
 H        -4.230839         0.945619         0.244733
 H        -2.906390         2.110605         0.334278
 H        -3.316437         1.203054        -1.175810
 H        -1.461489        -2.105571         1.363199
 H        -3.103474        -2.685780         1.894437
 H        -2.094241        -2.758929        -1.007133
