19
Iteration:  2947charge 0 multiplicity 1
 C         1.178882        -1.050696        -0.673653
 C        -0.128045        -0.550291        -0.376733
 C        -1.156241        -0.090447         0.161565
 C        -2.411773         0.069753         0.875809
 C        -3.182733         1.283492         0.564378
 O        -3.470993        -0.887755         0.474665
 C        -3.219845        -2.214521         0.791343
 C        -2.187088        -3.077123        -0.141115
 O        -2.087413        -4.319245        -0.060443
 H         1.154032        -1.500020        -1.678961
 H         1.850237        -0.221981        -0.586054
 H         1.442014        -1.840414         0.036328
 H        -2.199647        -0.031666         1.949335
 H        -4.236611         1.075147         0.875287
 H        -2.746960         2.107077         1.189538
 H        -3.215095         1.522958        -0.511931
 H        -2.840138        -2.344955         1.802824
 H        -4.237514        -2.658005         0.620249
 H        -1.594011        -2.436323        -0.831104
