19
Iteration:  3563charge 0 multiplicity 1
 C         1.001896        -0.935775        -0.704479
 C        -0.108157        -0.551403         0.149833
 C        -1.096754        -0.208303         0.789883
 C        -2.496010         0.031224         1.010993
 C        -3.006872         1.517397         0.689556
 O        -3.343808        -0.920757         0.199147
 C        -3.051614        -2.268508         0.512034
 C        -2.194984        -3.143282        -0.451965
 O        -2.379492        -4.354748        -0.358314
 H         1.292903        -1.995429        -0.668232
 H         0.879399        -0.612836        -1.702749
 H         1.961655        -0.520529        -0.276900
 H        -2.698002        -0.228168         2.069715
 H        -2.209348         2.212966         0.895204
 H        -3.374211         1.482611        -0.302451
 H        -3.836810         1.741955         1.399279
 H        -2.527556        -2.337699         1.538997
 H        -4.005724        -2.887266         0.697071
 H        -1.327826        -2.944602        -1.147297
