19
Iteration:   441charge 0 multiplicity 1
 C         1.510810         0.238324        -0.000176
 C         0.064169         0.204228         0.132778
 C        -1.143642         0.131678         0.297080
 C        -2.601423        -0.178816         0.190436
 C        -3.221218         0.819000        -0.637832
 O        -2.855245        -1.480490        -0.475640
 C        -2.137333        -2.468848         0.331764
 C        -3.053988        -3.679761         0.449064
 O        -3.261619        -4.336775         1.444605
 H         1.835581         0.189873        -1.077045
 H         1.862015         1.187085         0.452475
 H         1.979857        -0.542523         0.605117
 H        -3.049025        -0.226648         1.228639
 H        -4.277930         0.850715        -0.478827
 H        -2.789140         1.804504        -0.350682
 H        -3.023060         0.747804        -1.737761
 H        -1.178820        -2.667736        -0.141149
 H        -1.954353        -2.274823         1.369302
 H        -3.410835        -3.998758        -0.585226
