19
Iteration:   807charge 0 multiplicity 1
 C         1.493788        -0.231215         0.079377
 C         0.092890        -0.109112        -0.230465
 C        -1.100107         0.152655        -0.120703
 C        -2.599754         0.056065         0.290423
 C        -3.552173         0.910874        -0.542246
 O        -3.052175        -1.321865         0.128268
 C        -2.361111        -2.226692         0.992333
 C        -2.496154        -3.505388         0.265410
 O        -3.076767        -4.510162         0.698878
 H         1.608500        -0.950202         0.861567
 H         2.213854        -0.426474        -0.672669
 H         1.751847         0.762939         0.500104
 H        -2.685850         0.345697         1.344357
 H        -4.482000         0.506162        -0.219727
 H        -3.360957         1.970582        -0.328792
 H        -3.416227         0.855407        -1.681613
 H        -1.307895        -1.966420         0.890434
 H        -2.707170        -2.158839         1.999418
 H        -2.143112        -3.413192        -0.811701
