19
Iteration:  3837
 C         1.135698        -1.093982        -0.533552
 C        -0.134921        -0.713563        -0.042012
 C        -1.097927        -0.324177         0.592623
 C        -2.490698        -0.118033         1.026277
 C        -2.896276         1.373365         0.900127
 O        -3.465112        -0.908045         0.311157
 C        -3.330430        -2.300126         0.524839
 C        -2.387833        -2.847142        -0.540172
 O        -2.030492        -4.012564        -0.504933
 H         1.521541        -2.118781        -0.362079
 H         1.109229        -1.080732        -1.634377
 H         1.882930        -0.363332        -0.027638
 H        -2.724780        -0.436930         2.024580
 H        -2.713461         1.742699         1.949307
 H        -2.259787         1.960463         0.185051
 H        -3.965368         1.522442         0.781725
 H        -2.905140        -2.475802         1.551997
 H        -4.278374        -2.764699         0.788492
 H        -2.148842        -2.166655        -1.398021
