19
Iteration:   623charge 0 multiplicity 1
 C         1.673207         0.631590        -0.241146
 C         0.254721         0.272713         0.076323
 C        -0.935079         0.016870         0.089655
 C        -2.382865        -0.235353         0.248074
 C        -2.992129         0.721927        -0.691917
 O        -2.952355        -1.523598        -0.139915
 C        -2.896420        -2.330506         0.973646
 C        -3.554922        -3.669321         0.631966
 O        -2.869367        -4.674332         0.728902
 H         1.935616         1.642674         0.184729
 H         2.403891         0.003665         0.341065
 H         1.935312         0.497006        -1.352483
 H        -2.567577        -0.019844         1.316651
 H        -4.000701         0.389574        -0.924472
 H        -3.019439         1.691245        -0.128752
 H        -2.351040         1.061115        -1.560490
 H        -1.901906        -2.511476         1.278220
 H        -3.460716        -1.930216         1.874586
 H        -4.674753        -3.788502         0.432613
