19
Iteration:  3500charge 0 multiplicity 1
 C         1.309423        -0.869105        -0.637846
 C         0.069345        -0.513021         0.059320
 C        -1.044449        -0.192032         0.467913
 C        -2.445676         0.016112         0.948817
 C        -3.019712         1.381267         0.552624
 O        -3.482458        -1.002944         0.510877
 C        -3.326425        -2.365591         0.744176
 C        -2.471684        -3.089361        -0.416093
 O        -2.204126        -4.273194        -0.465149
 H         1.082064        -1.202461        -1.626225
 H         2.034287        -0.016314        -0.581070
 H         1.687474        -1.654261         0.054638
 H        -2.484573        -0.169672         2.057619
 H        -2.503807         2.176184         1.111322
 H        -2.845596         1.780018        -0.474786
 H        -4.119571         1.440057         0.679779
 H        -2.964330        -2.559270         1.745041
 H        -4.341470        -2.810602         0.660208
 H        -2.250616        -2.191791        -1.076185
