19
Iteration:   571charge 0 multiplicity 1
 C         1.594561         0.662592         0.014983
 C         0.270656         0.260037        -0.162024
 C        -0.926394         0.070815        -0.175271
 C        -2.326093        -0.126669         0.175114
 C        -3.025819         0.777268        -0.774690
 O        -2.978292        -1.421041         0.044325
 C        -2.660582        -2.404487         1.091888
 C        -3.414854        -3.738823         0.626844
 O        -3.153687        -4.887817         0.760313
 H         1.885339         0.728567         1.108365
 H         2.377559         0.085307        -0.549832
 H         1.668255         1.685031        -0.327015
 H        -2.310200         0.166348         1.224771
 H        -4.074895         0.549947        -0.828761
 H        -2.837526         1.820643        -0.479212
 H        -2.551129         0.764016        -1.829561
 H        -1.567040        -2.605513         1.334836
 H        -3.244948        -1.978408         1.933719
 H        -4.232516        -3.525840        -0.095996
