19
Iteration:  1024
 C         1.683519         0.099132        -0.208216
 C         0.228797        -0.156940        -0.008917
 C        -1.014779        -0.266411         0.150617
 C        -2.418262        -0.110390         0.321748
 C        -3.338706         0.971971        -0.598886
 O        -3.158670        -1.271543         0.005042
 C        -3.161173        -2.170622         1.144447
 C        -2.940621        -3.465722         0.280294
 O        -2.489220        -4.544430         0.603172
 H         2.407757        -0.653206        -0.530599
 H         1.708007         1.026673        -0.735619
 H         2.054859         0.325123         0.855171
 H        -2.574331         0.204894         1.353187
 H        -4.288971         0.624988        -0.771996
 H        -3.513436         1.836817        -0.031111
 H        -2.854681         1.113481        -1.571205
 H        -2.353590        -1.958260         1.846557
 H        -4.166927        -2.234417         1.556038
 H        -3.357159        -3.273510        -0.748226
