19
Iteration:  3742
 C         1.362472        -0.695320        -0.420923
 C        -0.051282        -0.635827        -0.068018
 C        -1.166855        -0.778849         0.435696
 C        -2.426241        -0.271793         0.882227
 C        -2.704500         1.259258         0.716514
 O        -3.568830        -0.884924         0.432238
 C        -3.597955        -2.270711         0.589142
 C        -2.636092        -2.896275        -0.451317
 O        -1.954638        -3.904318        -0.429530
 H         1.631127        -0.291044        -1.348617
 H         1.689741         0.157294         0.250028
 H         1.642105        -1.729779        -0.087452
 H        -2.125908        -0.460568         1.979679
 H        -1.736309         1.717288         0.436992
 H        -3.460437         1.453065        -0.028187
 H        -2.847499         1.649535         1.743035
 H        -3.301539        -2.660704         1.623320
 H        -4.694952        -2.680826         0.473910
 H        -2.620814        -2.252815        -1.385386
