19
Iteration:  4191charge 0 multiplicity 1
 C         1.269528        -1.294203        -0.106993
 C         0.100124        -0.606057         0.316408
 C        -1.044170        -0.212356         0.459389
 C        -2.336147        -0.006647         1.134344
 C        -3.106849         1.338354         0.887641
 O        -3.415435        -0.920032         0.566981
 C        -3.153823        -2.294648         0.436277
 C        -2.443863        -2.853999        -0.785123
 O        -2.487120        -4.009805        -1.091055
 H         2.173476        -1.032111         0.418228
 H         1.054962        -2.313608        -0.173301
 H         1.320973        -0.953526        -1.173727
 H        -2.163490        -0.141070         2.252394
 H        -2.923756         2.081127         1.717266
 H        -2.730883         1.725846        -0.095319
 H        -4.179463         1.232053         0.716824
 H        -2.435435        -2.629297         1.275742
 H        -4.045052        -3.009769         0.708814
 H        -1.899062        -2.115812        -1.475973
