19
Iteration:  2441charge 0 multiplicity 1
 C         1.456277        -0.232942        -0.597332
 C         0.066086        -0.521680        -0.371126
 C        -1.061153        -0.142094         0.061867
 C        -2.384097        -0.026377         0.666166
 C        -3.040338         1.322505         0.263463
 O        -3.342230        -1.003621         0.265604
 C        -3.304124        -2.293739         0.859396
 C        -2.576106        -3.449624         0.024871
 O        -2.452468        -4.584156         0.416679
 H         2.098459        -1.189493        -0.768654
 H         1.482119         0.508377        -1.435150
 H         1.911366         0.304623         0.229856
 H        -2.293972        -0.042292         1.781707
 H        -4.133384         1.293509         0.499655
 H        -2.628674         2.296212         0.731752
 H        -3.003660         1.378920        -0.817712
 H        -2.939770        -2.366881         1.916025
 H        -4.324827        -2.757896         0.901643
 H        -2.179146        -3.115642        -0.921860
