19
Iteration:  2189charge 0 multiplicity 1
 C         0.875407        -1.507451        -0.643723
 C        -0.218105        -0.491675        -0.183011
 C        -1.337653        -0.176678         0.053366
 C        -2.694088         0.028255         0.676481
 C        -3.147401         1.459464         0.435414
 O        -3.570720        -1.034059         0.084928
 C        -3.295292        -2.339448         0.542754
 C        -2.082342        -3.028688         0.050783
 O        -1.272213        -3.745528         0.652898
 H         0.615908        -2.540776        -0.361810
 H         0.736715        -1.541585        -1.707380
 H         1.833621        -1.134663        -0.338988
 H        -2.723229        -0.181095         1.758470
 H        -3.961489         1.945237         1.009481
 H        -2.254759         2.004488         0.717881
 H        -3.290962         1.650851        -0.689834
 H        -3.314091        -2.513211         1.649090
 H        -4.178487        -2.876244         0.070758
 H        -1.998811        -2.844797        -1.167105
