19
Iteration:  1840
 C         1.552947        -0.144238        -0.460684
 C         0.205455         0.049550         0.079117
 C        -0.996430        -0.075400         0.538733
 C        -2.435349         0.137037         0.613082
 C        -3.237355         0.836267        -0.543629
 O        -3.313876        -1.157736         0.465237
 C        -2.597640        -2.307602         0.867734
 C        -3.060684        -3.458398        -0.064256
 O        -2.720721        -4.605859         0.302297
 H         1.412909        -0.883361        -1.323768
 H         2.040952         0.799064        -0.697623
 H         2.177054        -0.673629         0.292192
 H        -2.676211         0.454109         1.640715
 H        -4.226288         0.877166        -0.031046
 H        -2.863458         1.830159        -0.825442
 H        -3.456735         0.272693        -1.433430
 H        -1.454898        -2.272431         0.703571
 H        -2.774614        -2.557371         1.913162
 H        -3.651971        -3.288159        -0.937489
