19
Iteration:  4794
 C         1.826601        -0.038893         0.476157
 C         0.458448        -0.376746         0.692888
 C        -0.793220        -0.436014         0.755610
 C        -2.261924        -0.431148         1.019286
 C        -2.728068         0.988549         1.108821
 O        -3.040390        -0.994164        -0.019865
 C        -2.825878        -2.402093         0.146072
 C        -3.762758        -3.128528        -0.842238
 O        -3.461852        -4.169793        -1.391045
 H         1.733878         0.416586        -0.558315
 H         2.511201         0.539501         1.057607
 H         2.487742        -0.945622         0.253323
 H        -2.522470        -0.968455         2.011560
 H        -2.305135         1.556883         1.926629
 H        -2.542038         1.669856         0.181433
 H        -3.793751         0.885822         1.326572
 H        -1.701697        -2.722322         0.032147
 H        -3.116614        -2.699566         1.168228
 H        -4.547890        -2.419980        -1.241878
