19
Iteration:   851charge 0 multiplicity 1
 C         1.410842        -0.392823        -0.030019
 C         0.085721         0.353618        -0.006237
 C        -1.120528         0.279623        -0.079756
 C        -2.491626         0.095787         0.158115
 C        -3.530414         1.082255        -0.582875
 O        -2.972813        -1.367965         0.135892
 C        -2.538245        -2.325858         1.051211
 C        -2.462826        -3.652235         0.266811
 O        -3.021120        -4.654794         0.710401
 H         1.822340        -0.496042         0.950872
 H         1.230395        -1.364780        -0.442145
 H         2.178324         0.039173        -0.698054
 H        -2.407423         0.395987         1.199593
 H        -4.348508         1.345773         0.039538
 H        -2.905623         1.843593        -1.057115
 H        -3.907835         0.482711        -1.501289
 H        -1.630200        -2.197722         1.516896
 H        -3.330742        -2.541777         1.715541
 H        -1.889762        -3.638856        -0.660231
