19
Iteration:  3448
 C         1.480296        -0.754561        -0.350148
 C        -0.090611        -0.668923        -0.272714
 C        -1.209614        -0.469713         0.202315
 C        -2.491731        -0.143690         0.891991
 C        -2.884892         1.312212         0.485659
 O        -3.586147        -0.967293         0.689203
 C        -3.182158        -2.363464         0.788564
 C        -2.625877        -2.927047        -0.491944
 O        -2.137864        -4.049101        -0.342035
 H         1.718877         0.156423        -0.977185
 H         1.803077        -0.428063         0.694617
 H         1.831161        -1.646137        -0.834720
 H        -2.292198        -0.233474         1.970276
 H        -2.588068         2.049737         1.265931
 H        -2.448326         1.659128        -0.512750
 H        -3.959116         1.431328         0.357991
 H        -2.349626        -2.464561         1.536308
 H        -4.014757        -2.971528         1.133183
 H        -2.914519        -2.314709        -1.324956
