19
Iteration:  1466charge 0 multiplicity 1
 C         1.752767         0.656406        -0.237165
 C         0.302004         0.449899        -0.061398
 C        -0.858021         0.089543         0.228262
 C        -2.270783        -0.156448         0.443953
 C        -3.213345         0.822745        -0.167808
 O        -2.779701        -1.465091        -0.037297
 C        -2.700259        -2.587645         0.728502
 C        -3.344436        -3.772953         0.028721
 O        -3.479988        -4.720532         0.733229
 H         2.016317         1.560580        -0.727339
 H         2.382396         0.661468         0.673140
 H         2.165227        -0.113675        -0.886729
 H        -2.377961        -0.166140         1.530892
 H        -4.247552         0.796638         0.240030
 H        -2.714281         1.789329        -0.060671
 H        -3.296934         0.488686        -1.269418
 H        -1.695442        -2.853616         1.159102
 H        -3.377778        -2.571860         1.633810
 H        -3.578217        -3.867186        -1.056665
