19
Iteration:  3943charge 0 multiplicity 1
 C         1.007906        -1.474403        -0.447025
 C        -0.142549        -0.731602         0.078221
 C        -1.124190        -0.259140         0.610718
 C        -2.416349         0.066904         1.085095
 C        -3.079377         1.416970         0.989267
 O        -3.447420        -0.902856         0.314489
 C        -3.236534        -2.256181         0.535983
 C        -2.393656        -2.839960        -0.612962
 O        -1.826024        -3.908514        -0.723968
 H         1.901213        -0.824265        -0.461721
 H         1.091813        -2.439320         0.108204
 H         0.616891        -1.765643        -1.374941
 H        -2.436849        -0.452906         2.047235
 H        -2.326058         2.235671         0.885095
 H        -3.569064         1.330947        -0.033011
 H        -3.844338         1.550594         1.707642
 H        -2.812932        -2.303157         1.522299
 H        -4.262747        -2.608553         0.531244
 H        -2.193383        -1.998129        -1.356992
