19
Iteration:  1003charge 0 multiplicity 1
 C         1.556551         0.146147        -0.194507
 C         0.145913        -0.200684        -0.119823
 C        -1.026033        -0.177119         0.185414
 C        -2.507651        -0.024001         0.422267
 C        -3.068867         0.947971        -0.579401
 O        -3.201806        -1.177398         0.024203
 C        -3.178396        -2.290677         1.012977
 C        -2.867372        -3.516332         0.198484
 O        -2.516764        -4.578230         0.748326
 H         2.019876        -0.398667        -1.036059
 H         1.669560         1.215640        -0.364179
 H         2.206562        -0.243070         0.643883
 H        -2.721004         0.331646         1.452703
 H        -3.970542         0.573041        -0.973258
 H        -3.373870         1.861953        -0.146649
 H        -2.482222         1.037476        -1.482773
 H        -2.247354        -2.345167         1.646841
 H        -4.103274        -2.317650         1.614945
 H        -2.997418        -3.473244        -0.886476
