19
Iteration:  1380
 C         1.639346         0.423188        -0.403821
 C         0.293392         0.269019         0.224870
 C        -0.918395         0.160862         0.377698
 C        -2.296775        -0.047098         0.527070
 C        -3.255742         0.702847        -0.418559
 O        -2.764302        -1.330703         0.024229
 C        -2.707100        -2.411981         0.859368
 C        -3.263068        -3.646751         0.107531
 O        -3.257306        -4.824336         0.505046
 H         2.392459         0.575953         0.389837
 H         1.776613        -0.530211        -1.003657
 H         1.588964         1.295176        -1.121951
 H        -2.476814         0.084843         1.634352
 H        -3.244610         1.749808        -0.256968
 H        -3.019418         0.347231        -1.401931
 H        -4.340284         0.437957        -0.229910
 H        -1.750496        -2.456531         1.349434
 H        -3.558445        -2.373782         1.584772
 H        -3.770892        -3.278466        -0.769408
