19
Iteration:  4990
 C         1.817352        -0.110409         0.625811
 C         0.371200        -0.114484         0.694605
 C        -0.837579        -0.296364         0.619778
 C        -2.256824        -0.477703         1.009364
 C        -2.757263         0.866264         1.414741
 O        -3.003128        -1.121092        -0.069561
 C        -2.554078        -2.401292        -0.239305
 C        -3.378777        -3.107938        -1.323894
 O        -3.980539        -4.078190        -0.928694
 H         2.268678         0.819874         1.001162
 H         2.235848        -0.875606         1.318550
 H         2.253507        -0.412327        -0.319678
 H        -2.399052        -1.221282         1.845286
 H        -2.596043         0.962743         2.469325
 H        -2.171155         1.588542         0.794409
 H        -3.781027         0.958825         1.147577
 H        -1.452942        -2.421934        -0.402874
 H        -2.633189        -3.095265         0.653876
 H        -3.728328        -2.610166        -2.281221
