19
Iteration:   679charge 0 multiplicity 1
 C         1.546346         0.354013        -0.346019
 C         0.144237         0.063667         0.103081
 C        -1.049693         0.197501         0.386043
 C        -2.477368         0.001177         0.371563
 C        -3.104035         0.969778        -0.838513
 O        -2.805567        -1.444782        -0.069254
 C        -2.762247        -2.399300         1.012290
 C        -3.263231        -3.688877         0.385303
 O        -2.893307        -4.791721         0.767767
 H         1.576833         0.987456        -1.307831
 H         2.086026         0.891854         0.505783
 H         2.109181        -0.584460        -0.559932
 H        -2.918912         0.101080         1.391389
 H        -4.052348         1.389310        -0.581100
 H        -2.438809         1.817483        -0.809204
 H        -3.124410         0.202003        -1.680338
 H        -1.811555        -2.520764         1.402822
 H        -3.439714        -2.240934         1.901401
 H        -4.058686        -3.468405        -0.386700
