19
Iteration:  2132
 C         1.024184        -1.361850        -0.588749
 C        -0.286372        -0.842876        -0.274548
 C        -1.315744        -0.466486         0.215384
 C        -2.608155         0.046657         0.697942
 C        -3.306383         1.341718         0.209370
 O        -3.604536        -0.925011         0.261705
 C        -3.149222        -2.182652         0.714391
 C        -2.110104        -2.880749        -0.115110
 O        -1.395729        -3.653200         0.500282
 H         0.928916        -2.209969        -1.247708
 H         1.747254        -0.587631        -0.921956
 H         1.540760        -1.900006         0.288042
 H        -2.672701         0.014866         1.804082
 H        -4.409091         1.042305         0.056066
 H        -3.254788         2.162597         0.936437
 H        -2.774254         1.662380        -0.767232
 H        -2.620559        -2.160402         1.711548
 H        -4.015821        -2.900954         0.891509
 H        -2.267665        -2.895613        -1.319287
