19
Iteration:   327
 C         1.644702         0.137305         0.157856
 C         0.134218         0.247744        -0.025482
 C        -1.078575         0.328945        -0.093298
 C        -2.515611        -0.094962         0.029030
 C        -3.388778         0.895522        -0.619782
 O        -2.786777        -1.415506        -0.540826
 C        -2.286761        -2.513949         0.377399
 C        -3.252055        -3.688637         0.734427
 O        -3.170161        -4.567834         1.569932
 H         1.888454         0.766288         1.033105
 H         1.887141        -0.880464         0.520363
 H         2.340410         0.505034        -0.617988
 H        -2.796749        -0.260574         1.133782
 H        -2.753516         1.876570        -0.508497
 H        -3.452163         0.646857        -1.708603
 H        -4.455010         0.992629        -0.224502
 H        -1.431730        -2.911089        -0.215203
 H        -1.789075        -2.152214         1.300080
 H        -4.072651        -3.810680         0.036218
