19
Iteration:  2462
 C         1.533948        -0.288093        -0.694309
 C         0.126658        -0.330229        -0.090406
 C        -1.066008        -0.297998         0.006108
 C        -2.376335        -0.019274         0.575908
 C        -3.196506         1.247975         0.293236
 O        -3.371903        -1.040429         0.229544
 C        -3.152721        -2.234874         0.863359
 C        -2.544838        -3.384242         0.066177
 O        -2.589243        -4.537566         0.374078
 H         1.989716        -1.303053        -0.416885
 H         1.517764        -0.047772        -1.787522
 H         2.132728         0.522686        -0.269320
 H        -2.252904        -0.094831         1.670619
 H        -4.265827         1.015934         0.469918
 H        -2.840926         2.056036         1.046214
 H        -3.117180         1.596897        -0.720373
 H        -2.355257        -2.279994         1.679672
 H        -4.083372        -2.721711         1.292126
 H        -2.091914        -3.033487        -0.942321
