19
Iteration:  1716
 C         1.717365         0.177489        -0.217460
 C         0.287318         0.115172         0.073273
 C        -0.941055         0.114016         0.124598
 C        -2.439586        -0.038928         0.332966
 C        -3.339807         1.243142         0.043877
 O        -2.999863        -1.290470        -0.297328
 C        -2.537074        -2.480866         0.418790
 C        -3.291370        -3.829000         0.264139
 O        -3.078504        -4.790347         0.906724
 H         2.119462         1.151574         0.133042
 H         2.379603        -0.699347         0.264154
 H         1.891907         0.248998        -1.342163
 H        -2.649057        -0.206898         1.417719
 H        -4.022718         1.241133         0.906783
 H        -2.749068         2.124960         0.247531
 H        -3.940420         1.280807        -0.899413
 H        -1.440416        -2.549162         0.060703
 H        -2.548926        -2.320863         1.513382
 H        -4.114937        -3.821138        -0.610891
