19
Iteration:  4972
 C         1.791605        -0.130937         0.619619
 C         0.355454        -0.101093         0.624079
 C        -0.794427        -0.374813         0.760220
 C        -2.229095        -0.522350         0.975821
 C        -2.797603         0.857523         1.396339
 O        -3.004355        -1.013277        -0.137125
 C        -2.513629        -2.444280        -0.211547
 C        -3.372828        -3.103197        -1.228884
 O        -4.018560        -4.083557        -0.947434
 H         2.320867         0.599306         1.302228
 H         2.226891        -1.109733         0.749110
 H         2.176571         0.215864        -0.366365
 H        -2.244525        -1.138833         1.867372
 H        -2.568691         1.007118         2.506308
 H        -2.555723         1.674945         0.772702
 H        -3.915542         0.979006         1.260110
 H        -1.486276        -2.447058        -0.584582
 H        -2.688718        -2.873296         0.729053
 H        -3.067932        -2.728329        -2.242851
