19
Iteration:   453charge 0 multiplicity 1
 C         1.535284         0.281829         0.008042
 C         0.050659         0.344703         0.073992
 C        -1.148044         0.086989         0.311630
 C        -2.571302        -0.272509         0.244881
 C        -3.191594         0.900453        -0.658415
 O        -2.860087        -1.478314        -0.452686
 C        -2.230280        -2.452888         0.364155
 C        -3.012775        -3.703311         0.478151
 O        -3.295638        -4.403916         1.402551
 H         1.854842        -0.148985        -0.976693
 H         2.107174         1.219713         0.119487
 H         1.871721        -0.484199         0.795586
 H        -3.037753        -0.354389         1.259968
 H        -4.187895         1.126532        -0.491696
 H        -2.535659         1.798056        -0.683959
 H        -3.061966         0.322813        -1.609677
 H        -1.396134        -2.930263        -0.125815
 H        -1.846767        -1.878612         1.179125
 H        -3.330091        -3.993468        -0.585188
