19
Iteration:  4957
 C         1.893162        -0.084249         0.537771
 C         0.371970        -0.183411         0.626294
 C        -0.797545        -0.402420         0.804893
 C        -2.257166        -0.432349         1.042834
 C        -2.920227         0.898248         1.380571
 O        -2.894543        -1.014418        -0.121407
 C        -2.498374        -2.370170        -0.191498
 C        -3.325353        -3.197015        -1.223353
 O        -4.097331        -4.115576        -1.006416
 H         2.107607         0.243396         1.558202
 H         2.114787        -1.171210         0.473029
 H         2.208603         0.648840        -0.199847
 H        -2.544056        -1.183557         1.773997
 H        -2.507828         1.281053         2.276786
 H        -2.500458         1.720235         0.750259
 H        -3.908150         0.626377         1.557850
 H        -1.475855        -2.465016        -0.509632
 H        -2.693262        -2.838520         0.822896
 H        -3.418811        -2.725610        -2.322570
