19
Iteration:  4432charge 0 multiplicity 1
 C         1.718514        -0.405112         0.256496
 C         0.219836        -0.489276         0.288698
 C        -0.948709        -0.387611         0.591599
 C        -2.299531        -0.321323         1.036088
 C        -2.682624         1.188089         1.058281
 O        -3.293126        -0.925835         0.158805
 C        -3.285411        -2.314709         0.405392
 C        -3.117417        -3.034255        -0.987947
 O        -2.941295        -4.247196        -1.008917
 H         2.088653        -0.564937         1.290163
 H         2.109307        -1.277860        -0.313668
 H         2.057074         0.506758        -0.323298
 H        -2.608869        -0.782344         2.025799
 H        -1.730308         1.750422         1.161877
 H        -3.085991         1.353718         0.053233
 H        -3.505789         1.352614         1.794137
 H        -2.274329        -2.590709         0.970754
 H        -4.242393        -2.582235         0.911585
 H        -3.178717        -2.431715        -1.878567
