19
Iteration:  1889charge 0 multiplicity 1
 C         1.363698        -0.294550        -0.313216
 C        -0.020834        -0.332052         0.063482
 C        -1.190581        -0.002282         0.133447
 C        -2.606002         0.197156         0.541540
 C        -3.087474         1.104752        -0.581590
 O        -3.250588        -1.118155         0.785200
 C        -2.544319        -2.362740         1.038725
 C        -2.833790        -3.435058         0.005627
 O        -2.559307        -4.596606         0.049717
 H         1.861408        -1.222099        -0.194000
 H         1.410214         0.093936        -1.378865
 H         1.922754         0.431997         0.326743
 H        -2.569120         0.630965         1.578585
 H        -4.133754         1.459375        -0.457891
 H        -2.295113         1.888403        -0.837846
 H        -3.186548         0.437216        -1.535709
 H        -1.420126        -2.277100         1.192359
 H        -2.969562        -2.755609         2.018917
 H        -3.486628        -2.973720        -0.787985
