19
Iteration:  1349
 C         1.644269         0.378339        -0.342348
 C         0.193959         0.276211         0.104750
 C        -0.990193         0.138060         0.449621
 C        -2.436871        -0.091409         0.472063
 C        -3.213517         1.056703        -0.385932
 O        -2.768431        -1.415020        -0.046870
 C        -2.717425        -2.477644         0.809639
 C        -3.351158        -3.759958         0.123311
 O        -3.072066        -4.834763         0.608091
 H         2.270680        -0.283811         0.347315
 H         1.774491        -0.090673        -1.352675
 H         2.104693         1.437124        -0.388433
 H        -2.705743        -0.051346         1.560983
 H        -2.403020         1.731593        -0.787396
 H        -3.562557         0.568745        -1.297856
 H        -3.878322         1.732856         0.161184
 H        -1.644711        -2.753749         0.999167
 H        -3.059563        -2.274020         1.855573
 H        -3.852983        -3.497519        -0.917364
