19
Iteration:  1640
 C         1.706679         0.450044        -0.206281
 C         0.234459         0.226532         0.049460
 C        -0.916743         0.044990         0.317486
 C        -2.362803        -0.151018         0.512292
 C        -3.349265         0.828532        -0.100158
 O        -2.918242        -1.358793        -0.077148
 C        -2.206708        -2.574557         0.063992
 C        -3.315171        -3.666573         0.236456
 O        -3.483885        -4.571741         0.976744
 H         2.378380         0.049754         0.519015
 H         2.149515         0.068069        -1.159020
 H         1.941477         1.519965        -0.287150
 H        -2.513802        -0.229827         1.618643
 H        -2.885129         1.786946        -0.207795
 H        -3.324172         0.529726        -1.137747
 H        -4.397460         0.614791         0.230039
 H        -1.655977        -2.773864        -0.883779
 H        -1.513482        -2.389304         0.861853
 H        -4.102555        -3.406796        -0.480452
