19
Iteration:  2280charge 0 multiplicity 1
 C         1.127720        -1.027289        -0.844647
 C        -0.075946        -0.379089        -0.059599
 C        -1.249085        -0.287902         0.120234
 C        -2.681815        -0.126518         0.584734
 C        -2.951361         1.341231         0.487218
 O        -3.643185        -1.015420        -0.034347
 C        -3.386723        -2.295464         0.554306
 C        -2.188564        -3.086078         0.050317
 O        -1.677212        -3.968933         0.795833
 H         2.122962        -0.613114        -0.653790
 H         1.226356        -2.036782        -0.495921
 H         0.987178        -0.907971        -1.878183
 H        -2.677576        -0.390591         1.653005
 H        -3.977545         1.618114         0.666438
 H        -2.323292         1.841916         1.265783
 H        -2.717846         1.591267        -0.495073
 H        -3.359876        -2.265978         1.688016
 H        -4.222666        -3.013183         0.305462
 H        -1.897313        -2.930107        -1.020038
