19
Iteration:  4466charge 0 multiplicity 1
 C         1.769588        -0.501746         0.229883
 C         0.311908        -0.373604         0.381434
 C        -0.905943        -0.375635         0.530407
 C        -2.250819        -0.190918         1.033483
 C        -2.906659         1.311041         1.081458
 O        -3.194241        -0.976721         0.215582
 C        -3.289254        -2.379534         0.395095
 C        -3.110848        -3.086688        -0.999835
 O        -3.043377        -4.300553        -1.096307
 H         2.349722         0.179530         0.863524
 H         1.928791        -1.578791         0.494968
 H         2.135110        -0.362097        -0.823620
 H        -2.267735        -0.634571         2.091953
 H        -2.168582         2.014167         1.511276
 H        -3.107316         1.601083         0.041272
 H        -3.816571         1.191224         1.744100
 H        -2.416892        -2.753748         1.086322
 H        -4.116499        -2.841690         0.969114
 H        -2.999321        -2.418026        -1.840491
