19
Iteration:  1398charge 0 multiplicity 1
 C         1.617562         0.445457        -0.365800
 C         0.276226         0.266985         0.167104
 C        -0.929842         0.156775         0.238404
 C        -2.405816        -0.096789         0.460422
 C        -3.227874         0.841794        -0.400797
 O        -2.638710        -1.466621         0.080514
 C        -2.725634        -2.502858         1.029160
 C        -3.255276        -3.593548         0.126537
 O        -3.314465        -4.771403         0.447788
 H         2.268159         0.986116         0.301375
 H         2.086315        -0.511356        -0.638345
 H         1.485916         1.003616        -1.262261
 H        -2.696495         0.067074         1.496123
 H        -3.617495         1.762418         0.111924
 H        -2.665680         0.983713        -1.343233
 H        -4.242979         0.350225        -0.590243
 H        -1.747147        -2.960154         1.395448
 H        -3.268958        -2.148872         1.930274
 H        -3.395005        -3.170620        -0.983128
