19
Iteration:  2274charge 0 multiplicity 1
 C         1.029796        -1.027567        -0.813210
 C        -0.033418        -0.473281        -0.040536
 C        -1.263938        -0.286236         0.109537
 C        -2.625468        -0.115783         0.559831
 C        -2.991433         1.347932         0.484850
 O        -3.614247        -0.986309        -0.043296
 C        -3.421235        -2.286848         0.564189
 C        -2.142466        -3.086854         0.116863
 O        -1.632195        -3.947793         0.754710
 H         2.031812        -0.665733        -0.506403
 H         1.101669        -2.160351        -0.668611
 H         1.020047        -0.851831        -1.968673
 H        -2.619570        -0.430677         1.630900
 H        -4.063411         1.461788         0.835528
 H        -2.363656         1.871219         1.183465
 H        -2.980887         1.779060        -0.612606
 H        -3.488566        -2.373744         1.650659
 H        -4.312280        -2.792800         0.191592
 H        -1.833572        -2.936347        -0.965390
