19
Iteration:  2917
 C         1.215436        -1.052176        -0.682902
 C        -0.068186        -0.485575        -0.229773
 C        -1.250161        -0.118114         0.065598
 C        -2.588202         0.103585         0.768954
 C        -3.191535         1.505450         0.605566
 O        -3.372133        -1.086034         0.350240
 C        -3.058709        -2.314139         0.955997
 C        -2.262137        -3.108830        -0.167635
 O        -2.181169        -4.307791        -0.067591
 H         1.439474        -0.789398        -1.691293
 H         2.102234        -0.594678        -0.151502
 H         1.419087        -2.211743        -0.502819
 H        -2.439181         0.007693         1.878316
 H        -4.203434         1.621032         1.024885
 H        -2.539051         1.998571         1.254569
 H        -3.109268         2.084018        -0.352310
 H        -2.364097        -2.266856         1.827237
 H        -4.041531        -2.657668         1.217672
 H        -1.817257        -2.460594        -0.911691
