19
Iteration:  4723charge 0 multiplicity 1
 C         1.872513        -0.412139         0.542181
 C         0.323544        -0.212016         0.455638
 C        -0.902278        -0.317016         0.614019
 C        -2.278798        -0.277661         1.035731
 C        -2.754833         1.127574         1.105865
 O        -3.197725        -1.030684         0.263407
 C        -2.871297        -2.408247         0.093473
 C        -3.554703        -3.099912        -0.989973
 O        -3.284523        -4.247844        -1.312429
 H         2.352522         0.430280         1.125460
 H         2.257996        -1.470981         0.779661
 H         2.262575        -0.226088        -0.472411
 H        -2.273685        -0.708636         2.126996
 H        -1.912139         1.779601         1.453449
 H        -2.915036         1.493638         0.136982
 H        -3.637046         1.317469         1.717236
 H        -1.771913        -2.612338        -0.101475
 H        -3.101036        -3.012085         0.991716
 H        -4.434386        -2.546084        -1.390683
