19
Iteration:  1094
 C         1.502437        -0.142438         0.021960
 C         0.112170         0.081726        -0.199453
 C        -1.030421        -0.022456         0.296362
 C        -2.562555         0.041099         0.314578
 C        -3.228546         1.154316        -0.609968
 O        -3.171409        -1.254630        -0.088412
 C        -2.731447        -2.298617         0.893100
 C        -3.164756        -3.679045         0.488688
 O        -2.396103        -4.661981         0.534395
 H         1.665164        -0.388173         1.077495
 H         1.954449        -0.823310        -0.768502
 H         2.023106         0.789871        -0.082881
 H        -2.954257         0.167197         1.358898
 H        -4.036165         1.669469         0.002927
 H        -2.552170         2.005223        -0.837761
 H        -3.667806         0.582557        -1.396812
 H        -1.607910        -2.332070         0.792419
 H        -3.100087        -2.021107         1.891736
 H        -4.247852        -3.822774         0.280069
