19
Iteration:  1184
 C         1.486216        -0.281330         0.095844
 C         0.068255         0.179324         0.016939
 C        -1.110413         0.359381         0.331046
 C        -2.579324         0.128647         0.441004
 C        -3.383109         0.856610        -0.612752
 O        -3.022730        -1.271102         0.142081
 C        -2.161165        -2.325022         0.290697
 C        -3.160368        -3.572734         0.405681
 O        -2.789161        -4.698531         0.631465
 H         2.109158         0.548922        -0.190663
 H         1.699739        -0.653067         1.093497
 H         1.640153        -1.097699        -0.624103
 H        -3.027302         0.428012         1.401383
 H        -4.415814         0.770756        -0.344022
 H        -3.329762         1.947445        -0.597970
 H        -3.103216         0.472408        -1.653410
 H        -1.430763        -2.497553        -0.559420
 H        -1.657833        -2.353483         1.278599
 H        -4.265229        -3.403073         0.135991
