19
Iteration:  1692charge 0 multiplicity 1
 C         1.591279         0.288824        -0.179904
 C         0.150584         0.092423        -0.018273
 C        -1.077751         0.050064         0.144519
 C        -2.435961        -0.153574         0.376760
 C        -3.186555         1.199708         0.100120
 O        -2.886832        -1.326390        -0.393930
 C        -2.333904        -2.485283         0.370921
 C        -3.267369        -3.714238         0.317876
 O        -3.218969        -4.749693         0.938488
 H         2.033713         0.855845         0.700945
 H         2.111022        -0.784899        -0.189566
 H         1.877059         0.870366        -1.090314
 H        -2.640561        -0.420616         1.437492
 H        -3.629899         1.638348         1.037632
 H        -2.582222         1.968232        -0.263611
 H        -3.988755         0.879722        -0.630436
 H        -1.308750        -2.649001        -0.085618
 H        -2.212159        -2.182395         1.445318
 H        -4.114222        -3.525415        -0.497816
