19
Iteration:  2399charge 0 multiplicity 1
 C         1.350596        -0.298555        -0.659772
 C        -0.019661        -0.112742        -0.276731
 C        -1.111370        -0.418337         0.197987
 C        -2.422994        -0.163474         0.636133
 C        -2.766468         1.272872         0.218760
 O        -3.496859        -1.026111         0.179666
 C        -3.466083        -2.315917         0.758819
 C        -2.562688        -3.360420         0.085921
 O        -2.204323        -4.476510         0.507672
 H         1.355154        -0.971708        -1.597310
 H         1.955936         0.598131        -0.848036
 H         1.872280        -0.946812         0.012182
 H        -2.327805        -0.287671         1.749657
 H        -3.415473         1.793259         0.963033
 H        -1.857269         1.921106         0.186693
 H        -3.248268         1.262066        -0.751441
 H        -3.207577        -2.180269         1.791014
 H        -4.513097        -2.564119         0.873499
 H        -2.260257        -3.039201        -0.983489
