19
Iteration:  1151
 C         1.424637        -0.261760        -0.033686
 C         0.061678        -0.033024         0.423241
 C        -1.109964         0.181808         0.231931
 C        -2.565993         0.155794         0.277799
 C        -3.462049         0.992825        -0.658729
 O        -3.022032        -1.221234         0.050289
 C        -2.210841        -2.256520         0.510534
 C        -3.103100        -3.555555         0.474645
 O        -2.674306        -4.722509         0.563398
 H         2.056930         0.552525         0.278308
 H         1.923709        -1.195577         0.182376
 H         1.296704        -0.185266        -1.110656
 H        -2.919953         0.507488         1.278487
 H        -4.314547         1.247107        -0.042022
 H        -2.956192         1.842708        -1.135987
 H        -3.998024         0.426889        -1.498381
 H        -1.357389        -2.555458        -0.112972
 H        -1.693412        -2.101738         1.478350
 H        -4.154749        -3.341467         0.094194
