19
Iteration:  3586charge 0 multiplicity 1
 C         1.046346        -0.936032        -0.682167
 C        -0.049420        -0.666468         0.265977
 C        -1.041702        -0.051403         0.635635
 C        -2.564688         0.080942         0.999509
 C        -3.026117         1.465206         0.762433
 O        -3.335154        -0.849367         0.219237
 C        -3.081860        -2.294848         0.486619
 C        -2.302721        -3.183879        -0.439188
 O        -2.312783        -4.416902        -0.383551
 H         1.718168        -1.745003        -0.520965
 H         0.459958        -1.130671        -1.552164
 H         1.745307        -0.097636        -0.955434
 H        -2.608375        -0.261259         2.036145
 H        -2.253911         2.043085         1.250518
 H        -3.056401         1.557239        -0.327709
 H        -3.979889         1.696072         1.221895
 H        -2.620251        -2.382616         1.534275
 H        -4.138462        -2.724110         0.637281
 H        -1.501586        -2.859052        -1.132274
