19
Iteration:  4598charge 0 multiplicity 1
 C         1.379905        -0.702393        -0.006095
 C         0.238474        -0.341816         0.723846
 C        -0.910810        -0.306601         1.147992
 C        -2.400910        -0.114660         1.093334
 C        -2.972211         1.253391         0.899717
 O        -2.988135        -1.055956         0.204924
 C        -2.500115        -2.359034         0.258041
 C        -2.946581        -3.106606        -1.055082
 O        -3.484880        -4.183155        -1.207669
 H         1.411337        -1.475000        -0.743671
 H         1.792735         0.126135        -0.654777
 H         2.195384        -0.815922         0.741613
 H        -2.764418        -0.418216         2.102588
 H        -2.569227         2.085534         1.417216
 H        -2.977431         1.727451        -0.084570
 H        -4.057240         1.241785         1.104888
 H        -1.419550        -2.229616         0.172983
 H        -2.879768        -3.004157         1.080362
 H        -2.689267        -2.485871        -1.944903
