19
Iteration:  1900charge 0 multiplicity 1
 C         1.368401        -0.327170        -0.279054
 C        -0.004587        -0.461165         0.020917
 C        -1.197292        -0.039759         0.144935
 C        -2.547461         0.206294         0.503339
 C        -3.227491         1.128701        -0.622865
 O        -3.235951        -1.107590         0.811047
 C        -2.529907        -2.312702         1.118402
 C        -2.815207        -3.398356         0.012397
 O        -2.523968        -4.602975        -0.009965
 H         1.977194        -1.135654        -0.008136
 H         1.492210        -0.219166        -1.406017
 H         1.637959         0.614364         0.248060
 H        -2.687856         0.837585         1.448443
 H        -4.202728         1.610903        -0.397711
 H        -2.584454         2.065294        -0.420355
 H        -3.032545         0.757954        -1.696834
 H        -1.415022        -2.243189         1.337683
 H        -3.045266        -2.698695         2.059678
 H        -3.391236        -2.996701        -0.823235
