19
Iteration:  2082charge 0 multiplicity 1
 C         0.984536        -1.206275        -0.546536
 C        -0.189702        -0.547803        -0.022003
 C        -1.288571        -0.110740         0.179698
 C        -2.585250         0.150822         0.679656
 C        -3.121778         1.302781        -0.218083
 O        -3.546076        -1.031214         0.539156
 C        -3.258409        -2.377100         0.991408
 C        -2.266901        -3.078497         0.017728
 O        -1.460803        -3.967203         0.131008
 H         1.047408        -1.169463        -1.679089
 H         1.851568        -0.791361        -0.064204
 H         1.017547        -2.258962        -0.394046
 H        -2.652534         0.422840         1.732417
 H        -4.081020         1.531577         0.174297
 H        -2.469050         2.124878        -0.062890
 H        -3.158445         1.076381        -1.285750
 H        -3.122617        -2.665352         2.028720
 H        -4.216858        -2.786328         0.721856
 H        -2.215458        -2.299444        -0.941801
