19
Iteration:  4072charge 0 multiplicity 1
 C         1.203926        -1.198554        -0.403886
 C         0.029409        -0.782369         0.340441
 C        -1.172674        -0.553770         0.556484
 C        -2.428421        -0.122118         1.179851
 C        -2.760393         1.145729         0.609397
 O        -3.597881        -0.930407         0.633955
 C        -3.432655        -2.278899         0.506701
 C        -2.623549        -2.656749        -0.767056
 O        -1.872674        -3.596396        -0.804739
 H         0.914679        -2.190028        -0.743863
 H         1.577213        -0.529866        -1.178470
 H         2.017849        -1.413352         0.345691
 H        -2.530770        -0.317473         2.258195
 H        -2.186371         1.968638         1.054226
 H        -2.641957         1.130537        -0.487592
 H        -3.703694         1.464009         0.935655
 H        -3.058069        -2.758514         1.410169
 H        -4.437170        -2.739387         0.445234
 H        -3.046231        -2.005538        -1.662944
