19
Iteration:  4894charge 0 multiplicity 1
 C         1.867597        -0.076437         0.364677
 C         0.414056        -0.175046         0.883669
 C        -0.779913        -0.343115         0.969450
 C        -2.183392        -0.422219         1.134007
 C        -3.055575         0.879336         1.056565
 O        -2.760084        -1.149297        -0.045228
 C        -2.548024        -2.521189        -0.021323
 C        -3.518144        -2.991454        -1.087809
 O        -4.004678        -4.085478        -1.235909
 H         2.394196        -1.074992         0.551034
 H         2.009707         0.032607        -0.713448
 H         2.597032         0.717726         0.712427
 H        -2.294157        -1.020756         2.113315
 H        -2.540271         1.686772         1.688258
 H        -3.159323         1.263056         0.030763
 H        -4.070207         0.754546         1.517161
 H        -1.539722        -3.009244        -0.376513
 H        -2.678772        -2.890002         0.982335
 H        -3.725249        -2.105221        -1.724448
