19
Iteration:  3326
 C         1.209019        -0.979685        -0.561029
 C        -0.096863        -0.620279         0.050267
 C        -1.177783        -0.227940         0.420787
 C        -2.536989        -0.022120         0.911998
 C        -2.939169         1.350844         0.345227
 O        -3.517091        -0.957099         0.563703
 C        -3.240606        -2.383178         0.878134
 C        -2.482450        -3.017164        -0.383532
 O        -1.898948        -4.069486        -0.429311
 H         1.470620        -1.891186        -0.058119
 H         0.820512        -1.380907        -1.545878
 H         1.871047        -0.170223        -0.538346
 H        -2.519108         0.040742         2.028714
 H        -2.250783         1.879032        -0.295875
 H        -3.753317         1.186428        -0.289555
 H        -3.249356         2.223523         1.008744
 H        -2.667124        -2.698170         1.793635
 H        -4.285109        -2.777976         0.993235
 H        -2.438226        -2.389609        -1.273670
