19
Iteration:  1999
 C         1.282561        -0.802420        -0.311715
 C        -0.156859        -0.519330        -0.060581
 C        -1.260605        -0.089235         0.103613
 C        -2.573366         0.278101         0.591992
 C        -3.340708         1.173026        -0.468286
 O        -3.414314        -0.989171         0.809192
 C        -2.857677        -2.305177         1.175221
 C        -2.367103        -3.213025        -0.041535
 O        -2.039743        -4.374847        -0.094026
 H         1.883657        -0.068791         0.151470
 H         1.722570        -1.765725         0.094818
 H         1.469975        -0.951255        -1.409133
 H        -2.513090         0.635624         1.642210
 H        -4.072015         1.922692        -0.073657
 H        -2.451285         1.822190        -0.935481
 H        -3.783385         0.541316        -1.232707
 H        -2.092365        -2.288886         2.016281
 H        -3.834346        -2.796502         1.514304
 H        -2.620807        -2.694966        -1.142834
