19
Iteration:  3174
 C         1.116441        -1.202412        -0.624672
 C        -0.202542        -0.708675        -0.289347
 C        -1.232860        -0.289726         0.279078
 C        -2.563520         0.066015         0.896258
 C        -3.065413         1.506384         0.720417
 O        -3.483591        -0.937677         0.358993
 C        -3.162138        -2.264668         0.739636
 C        -2.425371        -3.067806        -0.354129
 O        -1.724180        -4.032294        -0.078660
 H         1.791233        -0.459918        -1.215030
 H         1.488938        -1.194589         0.437775
 H         1.091223        -2.083558        -1.206230
 H        -2.495411         0.012200         1.995112
 H        -3.527224         1.954584         1.600194
 H        -2.258865         2.036488         0.299551
 H        -3.832035         1.505696        -0.099908
 H        -2.585191        -2.283203         1.715851
 H        -4.023627        -2.899753         0.898011
 H        -2.731716        -2.733712        -1.408411
