19
Iteration:  1597charge 0 multiplicity 1
 C         1.635025         0.630909        -0.190116
 C         0.283979         0.324371         0.185765
 C        -0.904923         0.073735         0.148642
 C        -2.326863        -0.205303         0.411896
 C        -3.192126         0.979960        -0.148428
 O        -2.893424        -1.524523         0.056969
 C        -2.176478        -2.771071         0.110070
 C        -3.450445        -3.755148         0.080832
 O        -3.516244        -4.496793         1.027983
 H         2.063387        -0.314866        -0.357965
 H         1.574377         1.137064        -1.166689
 H         2.181293         1.221960         0.536446
 H        -2.398779        -0.185668         1.521060
 H        -2.800168         1.589133        -0.968653
 H        -4.138880         0.541751        -0.568416
 H        -3.652054         1.401982         0.830029
 H        -1.497661        -2.897883        -0.718389
 H        -1.802627        -3.071394         1.083993
 H        -4.258495        -3.635618        -0.788046
