19
Iteration:  2645
 C         1.370429        -0.311684        -0.500191
 C        -0.023488        -0.375895        -0.241903
 C        -1.038299        -0.132304         0.255486
 C        -2.332485         0.141805         0.716095
 C        -3.233933         1.055690        -0.142006
 O        -3.260648        -1.028294         0.820917
 C        -2.619644        -2.334356         1.071020
 C        -2.549448        -3.357073        -0.152341
 O        -2.987002        -4.523934        -0.145531
 H         1.767474        -0.090005        -1.475006
 H         1.888513         0.465953         0.093661
 H         1.831176        -1.279662        -0.256575
 H        -2.244111         0.535121         1.741043
 H        -4.296935         0.814511         0.024096
 H        -3.096765         2.164649         0.024782
 H        -3.085305         0.864309        -1.190762
 H        -1.581959        -2.268200         1.127303
 H        -3.091787        -2.755566         1.963874
 H        -1.876011        -3.065028        -1.003646
