19
Iteration:  1449charge 0 multiplicity 1
 C         1.625065         0.588740        -0.227568
 C         0.233062         0.374506        -0.183704
 C        -0.895808         0.187697         0.235496
 C        -2.241167        -0.153568         0.584845
 C        -3.145277         0.861917        -0.268070
 O        -2.623990        -1.390458        -0.038305
 C        -2.764512        -2.537492         0.843052
 C        -3.296345        -3.784153         0.110288
 O        -3.491194        -4.847142         0.616973
 H         1.873248         1.710923        -0.299226
 H         1.981751         0.220478         0.732863
 H         2.150709         0.017579        -1.053300
 H        -2.513201        -0.121405         1.675662
 H        -4.053749         1.011396         0.320806
 H        -2.587001         1.721360        -0.670844
 H        -3.565219         0.362305        -1.091740
 H        -1.764350        -2.913276         1.078145
 H        -3.261927        -2.347254         1.802011
 H        -3.456171        -3.542985        -0.961105
