19
Iteration:  2834charge 0 multiplicity 1
 C         1.251288        -0.694119        -0.736067
 C         0.014015        -0.408681        -0.112955
 C        -1.048866        -0.004688         0.383333
 C        -2.408024         0.131670         0.878819
 C        -3.168722         1.207330         0.201278
 O        -3.334230        -0.906673         0.550291
 C        -2.968354        -2.283919         0.909335
 C        -2.689278        -3.337178        -0.172382
 O        -2.299315        -4.532750        -0.169139
 H         2.111751        -0.024310        -0.400180
 H         1.513627        -1.767432        -0.436232
 H         1.201065        -0.508412        -1.777850
 H        -2.432221         0.180621         1.987317
 H        -4.173286         1.363889         0.647111
 H        -2.636510         2.216605         0.275737
 H        -3.332521         0.835870        -0.862898
 H        -2.089748        -2.388833         1.583984
 H        -3.766881        -2.522927         1.728248
 H        -2.885641        -2.886740        -1.139431
