19
Iteration:  2835charge 0 multiplicity 1
 C         1.242003        -0.701611        -0.725864
 C         0.001814        -0.405294        -0.117247
 C        -1.036565        -0.010073         0.390531
 C        -2.406730         0.137188         0.868822
 C        -3.173942         1.205882         0.207057
 O        -3.332041        -0.906153         0.553659
 C        -2.964845        -2.284373         0.898511
 C        -2.684015        -3.337131        -0.178259
 O        -2.297623        -4.531987        -0.160852
 H         2.120709        -0.002403        -0.412007
 H         1.552803        -1.759865        -0.448877
 H         1.188431        -0.550930        -1.805115
 H        -2.407302         0.192317         1.984800
 H        -4.165761         1.367744         0.687523
 H        -2.648906         2.265653         0.265546
 H        -3.350163         0.847659        -0.843013
 H        -2.111524        -2.393268         1.574101
 H        -3.781745        -2.514811         1.694085
 H        -2.896808        -2.904672        -1.183178
