19
Iteration:  1867charge 0 multiplicity 1
 C         1.440111        -0.259009        -0.387363
 C         0.103005        -0.036547         0.036785
 C        -1.072352        -0.099285         0.360957
 C        -2.560166         0.110716         0.617864
 C        -3.129299         0.884774        -0.562625
 O        -3.326751        -1.130094         0.653442
 C        -2.610581        -2.283710         0.930635
 C        -2.939307        -3.432054        -0.041124
 O        -2.598922        -4.550670         0.168935
 H         1.535173        -1.299175        -0.626466
 H         1.658519         0.411292        -1.267657
 H         2.119117        -0.057968         0.455648
 H        -2.681868         0.548188         1.632055
 H        -4.021912         1.472460        -0.231143
 H        -2.324071         1.597244        -0.858399
 H        -3.449680         0.295554        -1.493417
 H        -1.505945        -2.218264         0.743292
 H        -2.712578        -2.608439         2.006230
 H        -3.441351        -3.082280        -1.036537
