19
Iteration:  4761
 C         1.845760        -0.176359         0.565545
 C         0.367085        -0.392872         0.519974
 C        -0.845966        -0.414381         0.593800
 C        -2.284517        -0.304860         1.047048
 C        -2.662357         1.209345         1.205916
 O        -3.085995        -1.007811         0.086343
 C        -2.898638        -2.451696         0.108096
 C        -3.744545        -3.201692        -0.902308
 O        -3.314691        -4.227821        -1.386156
 H         2.073811         0.878609         0.319549
 H         2.354185        -0.212908         1.488604
 H         2.196548        -0.740480        -0.325350
 H        -2.317601        -0.796403         2.021121
 H        -1.825693         1.641841         1.710912
 H        -2.998432         1.656709         0.188525
 H        -3.550983         1.178024         1.851580
 H        -1.784091        -2.681389        -0.060757
 H        -3.253182        -2.762240         1.103897
 H        -4.678282        -2.811892        -1.300272
