19
Iteration:   870charge 0 multiplicity 1
 C         1.474344        -0.352483        -0.108969
 C         0.084591         0.098875         0.006892
 C        -1.112598         0.393873         0.050563
 C        -2.627511         0.140159         0.311931
 C        -3.480840         1.025872        -0.641814
 O        -2.912147        -1.260947        -0.013223
 C        -2.640772        -2.292116         1.050467
 C        -2.483910        -3.671154         0.334700
 O        -2.955604        -4.745704         0.696494
 H         2.105814         0.055211         0.703482
 H         1.526087        -1.447449        -0.106453
 H         1.894061        -0.016856        -1.145935
 H        -2.991636         0.390338         1.347609
 H        -4.193212         1.548735        -0.058794
 H        -2.838349         1.816470        -1.088162
 H        -4.040153         0.482850        -1.393292
 H        -1.589935        -2.091915         1.495335
 H        -3.421925        -2.411029         1.855316
 H        -1.978996        -3.554053        -0.657014
