19
Iteration:  2562charge 0 multiplicity 1
 C         1.360861        -0.558133        -0.695277
 C         0.132755        -0.163258         0.010413
 C        -1.031000         0.200613         0.382410
 C        -2.475835         0.093228         0.716728
 C        -3.329897         1.069924        -0.029783
 O        -3.132401        -1.186013         0.374563
 C        -2.676855        -2.318790         1.033299
 C        -2.468072        -3.391114        -0.009548
 O        -2.988655        -4.478797        -0.001256
 H         2.105821         0.298864        -0.546707
 H         1.630794        -1.574665        -0.381817
 H         1.246469        -0.619100        -1.763280
 H        -2.569577         0.281192         1.791553
 H        -4.178469         1.335475         0.647246
 H        -2.815186         1.972305        -0.258763
 H        -3.640297         0.558328        -0.994279
 H        -1.656448        -2.277127         1.572690
 H        -3.328071        -2.711309         1.867262
 H        -1.861259        -3.025623        -0.881346
