19
Iteration:     5
 C         1.619586         0.136382        -0.180709
 C         0.191715         0.014987        -0.117218
 C        -1.034207         0.047510        -0.035672
 C        -2.491075        -0.072053         0.036690
 C        -3.153899         0.727126        -1.078949
 O        -2.966732        -1.371251        -0.093864
 C        -2.571372        -2.185332         0.978133
 C        -3.148123        -3.597631         0.679702
 O        -3.107208        -4.506360         1.432207
 H         2.062724         0.093354         0.850950
 H         2.065244        -0.659057        -0.774110
 H         2.028945         1.039978        -0.589743
 H        -2.689889         0.388068         1.076639
 H        -2.849277         0.189943        -2.033632
 H        -4.237102         0.821077        -0.975620
 H        -2.778575         1.746418        -1.088157
 H        -1.479017        -2.238185         1.121981
 H        -3.047762        -1.683364         1.879094
 H        -3.705760        -3.732615        -0.312558
