19
Iteration:   361
 C         1.597177         0.066044         0.195386
 C         0.124322         0.418423        -0.020459
 C        -1.084911         0.111073        -0.033623
 C        -2.533531        -0.155928         0.086659
 C        -3.479624         0.841970        -0.642322
 O        -2.786676        -1.480691        -0.325618
 C        -2.168824        -2.580111         0.328311
 C        -3.239517        -3.616505         0.492325
 O        -3.115326        -4.272368         1.503724
 H         2.178898         0.985725         0.502308
 H         1.619960        -0.612142         1.071284
 H         2.037419        -0.467229        -0.632349
 H        -2.763441        -0.095910         1.230682
 H        -2.889300         1.121200        -1.628089
 H        -4.405415         0.298283        -0.975056
 H        -3.585494         1.746823        -0.018858
 H        -1.444515        -3.124548        -0.335127
 H        -1.784578        -2.396050         1.331960
 H        -3.969394        -3.634140        -0.329584
