19
Iteration:   880
 C         1.475509        -0.323841        -0.158836
 C         0.003684        -0.020541         0.016218
 C        -1.144142         0.344205         0.196618
 C        -2.576003         0.150537         0.328054
 C        -3.465068         0.999275        -0.633603
 O        -2.891082        -1.253152        -0.032527
 C        -2.689557        -2.198834         0.958293
 C        -2.537120        -3.635828         0.349010
 O        -2.903925        -4.748707         0.699901
 H         2.072046         0.376738         0.461968
 H         1.838400        -1.339794         0.045074
 H         1.758234        -0.044814        -1.231305
 H        -2.743820         0.316541         1.424520
 H        -4.253801         1.539332        -0.143068
 H        -2.793268         1.625092        -1.244224
 H        -3.856487         0.306032        -1.340723
 H        -1.598418        -2.061639         1.414854
 H        -3.478329        -2.145708         1.796596
 H        -1.887742        -3.541260        -0.598723
