19
Iteration:  1465charge 0 multiplicity 1
 C         1.746002         0.652223        -0.236371
 C         0.297812         0.447114        -0.070306
 C        -0.860331         0.095209         0.231885
 C        -2.271093        -0.150691         0.443798
 C        -3.206668         0.817434        -0.168698
 O        -2.772567        -1.464067        -0.032007
 C        -2.705024        -2.586834         0.729757
 C        -3.344145        -3.769535         0.025249
 O        -3.479311        -4.727123         0.730912
 H         2.013446         1.562523        -0.704920
 H         2.370468         0.639560         0.681621
 H         2.153331        -0.094240        -0.888025
 H        -2.365623        -0.163638         1.530536
 H        -4.247472         0.848209         0.261447
 H        -2.723138         1.800360        -0.080177
 H        -3.278978         0.441243        -1.276265
 H        -1.695641        -2.860634         1.161248
 H        -3.374281        -2.546324         1.634599
 H        -3.564787        -3.854666        -1.038741
