19
Iteration:  4663
 C         1.748299        -0.622190         0.235686
 C         0.264144        -0.435681         0.523256
 C        -0.873256        -0.227401         0.935399
 C        -2.344565        -0.134197         1.121918
 C        -3.074215         1.269363         0.934661
 O        -3.081287        -1.095546         0.282909
 C        -2.551822        -2.461795         0.202581
 C        -3.247236        -3.017906        -0.982576
 O        -3.445127        -4.173936        -1.302482
 H         2.418043        -1.147953         0.992393
 H         2.102550        -1.041289        -0.813691
 H         2.028743         0.492440         0.207316
 H        -2.652436        -0.496577         2.200274
 H        -2.870640         1.938550         1.775243
 H        -2.745680         1.550784        -0.147844
 H        -4.176081         1.028947         0.869498
 H        -1.504063        -2.369209        -0.016489
 H        -2.633550        -3.107630         1.204490
 H        -3.477060        -2.184757        -1.730021
