19
Iteration:  2677
 C         1.569053        -0.293875        -0.587431
 C         0.131887        -0.181802        -0.121578
 C        -1.048457        -0.194771         0.126664
 C        -2.466032        -0.049391         0.704097
 C        -3.222726         1.029451        -0.166847
 O        -3.325328        -1.202833         0.790693
 C        -2.667839        -2.445514         1.183452
 C        -2.730420        -3.167643        -0.155004
 O        -2.885541        -4.363345        -0.115876
 H         1.640068        -0.781721        -1.516342
 H         2.030229         0.681911        -0.536622
 H         2.103491        -0.812530         0.225535
 H        -2.271049         0.245583         1.742398
 H        -4.123162         1.413052         0.292144
 H        -2.466628         1.838556        -0.286560
 H        -3.351876         0.584817        -1.117442
 H        -1.688883        -2.322764         1.629056
 H        -3.388398        -2.862304         1.893885
 H        -2.761983        -2.499518        -0.996489
