19
Iteration:  4071charge 0 multiplicity 1
 C         1.213173        -1.201846        -0.410733
 C         0.028014        -0.783418         0.336961
 C        -1.176585        -0.551752         0.551338
 C        -2.422845        -0.124955         1.185232
 C        -2.764297         1.145767         0.603998
 O        -3.598356        -0.933299         0.630747
 C        -3.439103        -2.278844         0.514623
 C        -2.620778        -2.648387        -0.757000
 O        -1.870793        -3.591098        -0.804891
 H         0.903948        -2.149371        -0.761568
 H         1.577396        -0.551106        -1.137377
 H         1.975629        -1.419646         0.364581
 H        -2.558140        -0.324083         2.264347
 H        -2.205752         1.929135         1.064513
 H        -2.595950         1.120838        -0.480254
 H        -3.690194         1.453592         0.946473
 H        -3.062202        -2.765943         1.426517
 H        -4.458689        -2.743529         0.417753
 H        -3.025952        -2.018322        -1.704968
