19
Iteration:  4198
 C         1.239543        -1.270602        -0.107997
 C         0.067978        -0.588306         0.362094
 C        -1.072576        -0.161721         0.407255
 C        -2.324454        -0.027849         1.141054
 C        -3.085157         1.331334         0.911012
 O        -3.331909        -0.922023         0.559319
 C        -3.176429        -2.303579         0.484874
 C        -2.439821        -2.840045        -0.821840
 O        -2.516724        -4.044614        -1.105723
 H         2.187121        -0.860684         0.351400
 H         1.189323        -2.435117         0.026339
 H         1.432506        -1.119658        -1.208428
 H        -2.295698        -0.398392         2.116151
 H        -2.917506         2.137287         1.556035
 H        -2.732643         1.805509        -0.026791
 H        -4.162815         1.169086         0.624500
 H        -2.633269        -2.675514         1.336057
 H        -4.023792        -2.903260         0.707691
 H        -1.824651        -2.110965        -1.368785
