19
Iteration:  2035
 C         1.185092        -0.976027        -0.496076
 C        -0.145958        -0.655297         0.003390
 C        -1.271558        -0.299039         0.445486
 C        -2.689292         0.082365         0.652600
 C        -3.265580         1.094378        -0.320161
 O        -3.564078        -1.036392         0.537410
 C        -2.833951        -2.141305         0.991245
 C        -2.229727        -2.919814        -0.161134
 O        -1.915087        -4.066219         0.131418
 H         1.615881        -0.143729        -1.019046
 H         1.792957        -1.358854         0.321872
 H         1.149498        -1.677310        -1.345950
 H        -2.751015         0.536248         1.663926
 H        -3.880073         1.867001         0.194802
 H        -2.457438         1.531789        -0.906465
 H        -3.881756         0.551365        -1.068136
 H        -1.914310        -1.938591         1.571316
 H        -3.474765        -2.690480         1.738416
 H        -2.363028        -2.459281        -1.298982
