19
Iteration:  1752
 C         1.651848         0.071806        -0.196264
 C         0.194085         0.150048        -0.101621
 C        -1.039082         0.031870         0.100954
 C        -2.363946        -0.115684         0.502161
 C        -3.223674         0.986356        -0.145132
 O        -3.088989        -1.209665         0.002494
 C        -2.597379        -2.404277         0.612995
 C        -3.235169        -3.633650         0.158094
 O        -2.939891        -4.663558         0.686720
 H         2.029337         1.097378        -0.446284
 H         2.092525        -0.177034         0.786571
 H         1.944153        -0.702613        -0.945944
 H        -2.396263         0.061547         1.604622
 H        -4.230140         0.547801        -0.117186
 H        -3.283960         2.007738         0.438122
 H        -2.915344         1.214609        -1.138342
 H        -1.454617        -2.551981         0.517117
 H        -2.753276        -2.341685         1.697066
 H        -4.069012        -3.444261        -0.673062
