19
Iteration:   410
 C         1.533934         0.239503         0.050327
 C         0.114793        -0.107658         0.260104
 C        -1.106388         0.075825         0.098243
 C        -2.587468        -0.047053         0.174870
 C        -3.519630         0.901195        -0.728806
 O        -2.750263        -1.454861        -0.346445
 C        -2.068561        -2.559635         0.319714
 C        -3.099046        -3.618556         0.400539
 O        -3.204087        -4.227505         1.474783
 H         1.567234         0.923503        -0.819951
 H         1.899839         0.778966         0.945201
 H         2.224663        -0.682679        -0.043004
 H        -3.021704        -0.056115         1.155024
 H        -4.237780         0.325691        -1.213671
 H        -4.019286         1.606850        -0.030840
 H        -2.868938         1.513542        -1.380639
 H        -1.300476        -2.914801        -0.373908
 H        -1.623453        -2.455956         1.335406
 H        -3.421121        -3.939898        -0.576878
