19
Iteration:  1102charge 0 multiplicity 1
 C         1.506910        -0.084915        -0.005097
 C         0.057271        -0.033700        -0.086120
 C        -1.098866        -0.013626         0.288779
 C        -2.611996         0.013108         0.273501
 C        -3.256302         1.189297        -0.567857
 O        -3.136184        -1.260482        -0.103973
 C        -2.593792        -2.250575         0.867106
 C        -3.137440        -3.671102         0.517335
 O        -2.443440        -4.649543         0.522545
 H         1.650219        -0.396316         1.061684
 H         1.753537        -1.084207        -0.509167
 H         2.243961         0.691809        -0.337733
 H        -2.973007         0.219289         1.276843
 H        -4.097121         1.738223        -0.170355
 H        -2.427255         1.763781        -0.962775
 H        -3.708986         0.721602        -1.427410
 H        -1.481337        -2.344613         0.690563
 H        -2.673240        -2.082277         1.954892
 H        -4.247491        -3.670617         0.194487
