19
Iteration:  2885charge 0 multiplicity 1
 C         1.133367        -0.905067        -0.679868
 C        -0.103122        -0.428976        -0.131816
 C        -1.167610        -0.077943         0.222607
 C        -2.461472         0.094220         0.820238
 C        -3.109078         1.364415         0.483502
 O        -3.445013        -0.988263         0.343113
 C        -2.898580        -2.220843         0.867441
 C        -2.440340        -3.246813        -0.217851
 O        -2.211252        -4.414757        -0.031345
 H         1.630706        -0.167100        -1.265450
 H         1.842752        -1.132290         0.159211
 H         1.063557        -1.879047        -1.311291
 H        -2.456674        -0.088108         1.907209
 H        -3.952845         1.466164         1.159169
 H        -2.527146         2.186142         0.693451
 H        -3.382445         1.417731        -0.597520
 H        -2.028154        -2.057032         1.557212
 H        -3.586315        -2.610062         1.583281
 H        -2.388852        -2.841470        -1.331735
