19
Iteration:  3073charge 0 multiplicity 1
 C         1.144903        -0.910479        -0.873586
 C        -0.170274        -0.691339        -0.159807
 C        -1.171467        -0.362372         0.425316
 C        -2.450608        -0.106409         1.032087
 C        -2.787730         1.301122         0.389550
 O        -3.584300        -0.930330         0.463594
 C        -3.501299        -2.369287         0.725369
 C        -2.514626        -3.049600        -0.252634
 O        -1.680367        -3.887918         0.006528
 H         1.769880        -1.127610        -0.022645
 H         1.045118        -1.819933        -1.564474
 H         1.459274        -0.020449        -1.408787
 H        -2.412499        -0.121336         2.134227
 H        -3.840108         1.284210         0.164686
 H        -2.580010         2.177124         1.067714
 H        -2.203016         1.367737        -0.483991
 H        -3.231925        -2.603039         1.774436
 H        -4.504896        -2.600059         0.513766
 H        -2.685921        -2.380137        -1.206024
