19
Iteration:  3133
 C         1.203112        -1.068968        -0.694170
 C        -0.184751        -0.820549        -0.194518
 C        -1.253100        -0.309622         0.130080
 C        -2.550731        -0.114727         0.827700
 C        -2.941801         1.336531         0.590369
 O        -3.639001        -0.898510         0.519229
 C        -3.247575        -2.268232         0.778451
 C        -2.420592        -2.930562        -0.226062
 O        -1.729218        -3.897176        -0.060380
 H         1.799546        -0.141956        -0.423793
 H         1.753328        -1.845179        -0.216185
 H         1.407158        -1.222187        -1.795013
 H        -2.283858        -0.427619         1.859513
 H        -4.007849         1.569662         0.790168
 H        -2.326742         1.896878         1.254390
 H        -2.759870         1.705968        -0.484126
 H        -3.071702        -2.543625         1.804681
 H        -4.251696        -2.746226         0.514826
 H        -2.461984        -2.593098        -1.269530
