19
Iteration:  2283
 C         1.169283        -1.013173        -0.835779
 C        -0.058519        -0.353954        -0.092281
 C        -1.273919        -0.290006         0.134995
 C        -2.694083        -0.132065         0.601814
 C        -2.939982         1.341509         0.494736
 O        -3.649703        -1.029711        -0.027257
 C        -3.377554        -2.308050         0.546716
 C        -2.205823        -3.099234         0.040336
 O        -1.702035        -3.966902         0.803060
 H         2.125218        -0.544628        -0.685339
 H         1.246391        -2.058513        -0.436513
 H         0.910528        -0.946512        -1.952960
 H        -2.699017        -0.377162         1.693147
 H        -3.988058         1.678915         0.615609
 H        -2.334497         1.815943         1.200401
 H        -2.547192         1.606134        -0.527709
 H        -3.293100        -2.193014         1.665556
 H        -4.166154        -3.049114         0.347841
 H        -1.896260        -2.916994        -1.087441
