19
Iteration:  3181
 C         1.092995        -1.199072        -0.619833
 C        -0.199360        -0.654324        -0.264267
 C        -1.176535        -0.224015         0.293659
 C        -2.548941         0.061684         0.909211
 C        -3.068513         1.453239         0.687446
 O        -3.545170        -0.969641         0.352862
 C        -3.090021        -2.264292         0.709306
 C        -2.407162        -3.027186        -0.349447
 O        -1.766076        -4.032929        -0.084216
 H         1.718940        -0.672315        -1.278969
 H         1.687334        -1.331619         0.321709
 H         0.990446        -2.246386        -1.015763
 H        -2.430455        -0.167038         2.004347
 H        -3.407237         1.951305         1.616145
 H        -2.265689         2.132254         0.235277
 H        -3.919700         1.439725         0.057446
 H        -2.642664        -2.203247         1.730200
 H        -4.075176        -2.787718         0.933077
 H        -2.738824        -3.017340        -1.387139
