19
Iteration:   232
 C         1.604337         0.482917        -0.099607
 C         0.193233         0.248554        -0.084242
 C        -0.992285        -0.008205         0.095527
 C        -2.436456         0.005715         0.033930
 C        -3.013726         0.995006        -1.098051
 O        -2.977032        -1.354855        -0.041568
 C        -2.445973        -2.570247         0.669158
 C        -3.492402        -3.728203         0.916368
 O        -3.124566        -4.828628         1.272417
 H         2.138862        -0.467290         0.284981
 H         2.024741         0.605226        -1.111492
 H         1.897496         1.228713         0.604087
 H        -2.828755         0.526351         1.032538
 H        -3.394275         0.411118        -1.939049
 H        -3.760119         1.698352        -0.761140
 H        -2.146313         1.524550        -1.365442
 H        -1.686987        -3.117235         0.067268
 H        -1.932283        -2.288347         1.631678
 H        -4.552705        -3.525432         0.617112
