19
Iteration:  4276charge 0 multiplicity 1
 C         1.339913        -0.883927        -0.084342
 C         0.084800        -0.638444         0.524489
 C        -1.113081        -0.342581         0.632584
 C        -2.440409        -0.089860         1.093230
 C        -2.846635         1.298231         0.974845
 O        -3.304497        -0.900661         0.260887
 C        -3.040752        -2.326079         0.370710
 C        -2.534433        -2.922522        -0.867137
 O        -2.800877        -4.124357        -1.010888
 H         1.569574        -0.387500        -1.057517
 H         2.179290        -0.550702         0.549104
 H         1.499235        -2.002415        -0.318896
 H        -2.754609        -0.432489         2.137891
 H        -2.097081         2.089341         1.096320
 H        -3.111680         1.534016        -0.071082
 H        -3.615529         1.475286         1.686947
 H        -2.436962        -2.444204         1.263576
 H        -3.896977        -2.890907         0.407514
 H        -1.905014        -2.326174        -1.540549
