19
Iteration:  3064charge 0 multiplicity 1
 C         1.045024        -0.889322        -0.834736
 C        -0.156737        -0.785359        -0.197986
 C        -1.092135        -0.353885         0.483203
 C        -2.488456        -0.038782         1.018067
 C        -2.758922         1.372803         0.413883
 O        -3.543036        -0.974619         0.438669
 C        -3.472823        -2.408175         0.710307
 C        -2.555327        -3.059777        -0.277417
 O        -1.711474        -3.887331         0.039545
 H         1.946032        -1.214367        -0.149999
 H         1.137044        -1.442506        -1.858461
 H         1.388833         0.064586        -1.178872
 H        -2.726568         0.053189         2.109042
 H        -3.842443         1.314689         0.264373
 H        -2.487642         2.302970         0.984406
 H        -2.486138         1.442296        -0.606302
 H        -3.022258        -2.519384         1.703380
 H        -4.423498        -2.924674         0.607645
 H        -2.491785        -2.534835        -1.380638
