19
Iteration:  1100
 C         1.498246        -0.101562         0.001703
 C         0.083197        -0.005918        -0.121452
 C        -1.077846        -0.018712         0.297640
 C        -2.599486         0.017615         0.282860
 C        -3.250978         1.189092        -0.573938
 O        -3.146626        -1.255890        -0.104420
 C        -2.627161        -2.263346         0.878632
 C        -3.145720        -3.673103         0.508556
 O        -2.428859        -4.655401         0.525728
 H         1.629095        -0.389511         1.064619
 H         1.776051        -0.987928        -0.562748
 H         2.236954         0.742012        -0.276611
 H        -2.994151         0.200347         1.276943
 H        -4.071484         1.714830        -0.159463
 H        -2.446111         1.837831        -0.915446
 H        -3.744747         0.634184        -1.448850
 H        -1.561662        -2.350841         0.700964
 H        -2.778766        -2.071594         1.985972
 H        -4.243998        -3.699889         0.224861
