19
Iteration:  2773
 C         1.410360        -0.393963        -0.665906
 C         0.051220        -0.322419        -0.188519
 C        -1.145904        -0.370108         0.252023
 C        -2.446161         0.045430         0.888045
 C        -2.994463         1.171596        -0.018133
 O        -3.466147        -1.008443         0.779574
 C        -2.830137        -2.327983         1.035883
 C        -2.747410        -3.259862        -0.167848
 O        -2.535339        -4.465268        -0.171709
 H         2.061061        -0.843152         0.101211
 H         1.527460        -0.769852        -1.657169
 H         1.627554         0.703658        -0.888396
 H        -2.396210         0.343930         1.961463
 H        -4.061901         1.128220         0.050128
 H        -2.588312         2.216678         0.070005
 H        -2.655651         0.793617        -0.922075
 H        -1.734206        -2.148948         1.158257
 H        -3.347222        -2.857328         1.792642
 H        -2.841366        -2.717205        -1.087265
