19
Iteration:  4214
 C         1.279098        -1.215785        -0.063316
 C         0.014507        -0.602683         0.301876
 C        -1.073083        -0.073657         0.472850
 C        -2.395266        -0.034622         1.091741
 C        -3.009425         1.328078         0.934129
 O        -3.266958        -0.948637         0.441829
 C        -3.098031        -2.356852         0.515240
 C        -2.488644        -2.916392        -0.721755
 O        -2.581470        -4.034861        -1.155330
 H         2.096724        -0.533049         0.135120
 H         1.342682        -2.134317         0.461046
 H         1.194194        -1.480869        -1.136790
 H        -2.149451        -0.059009         2.203292
 H        -2.762960         1.889451         1.911381
 H        -2.727936         1.764530        -0.041870
 H        -4.100698         1.262426         0.878219
 H        -2.682759        -2.827260         1.471227
 H        -4.263069        -2.736270         0.453975
 H        -1.970584        -2.136907        -1.407853
