19
Iteration:   596charge 0 multiplicity 1
 C         1.744360         0.710106        -0.072139
 C         0.296531         0.336388        -0.204094
 C        -0.826263        -0.134164         0.051100
 C        -2.368545        -0.024956         0.180995
 C        -3.107430         0.946596        -0.849866
 O        -2.950999        -1.481230         0.021219
 C        -2.836846        -2.423190         1.057807
 C        -3.557653        -3.817500         0.689257
 O        -2.995616        -4.911376         0.720755
 H         1.860748         1.206373         0.855316
 H         2.405623        -0.135236        -0.041993
 H         2.102276         1.305319        -0.881765
 H        -2.494388         0.321935         1.236393
 H        -4.114782         0.552107        -1.065092
 H        -3.152032         1.896013        -0.335723
 H        -2.533816         1.243228        -1.695038
 H        -1.771358        -2.608826         1.539881
 H        -3.510701        -2.071292         1.823842
 H        -4.627174        -3.792955         0.380312
