19
Iteration:  2398
 C         1.349859        -0.297812        -0.666873
 C        -0.004305        -0.106964        -0.267643
 C        -1.114452        -0.427344         0.196776
 C        -2.428539        -0.168493         0.640971
 C        -2.768795         1.261202         0.220151
 O        -3.507411        -1.021879         0.173251
 C        -3.462116        -2.313551         0.753507
 C        -2.562303        -3.351208         0.083485
 O        -2.200504        -4.473519         0.511222
 H         1.335370        -0.985001        -1.618596
 H         1.979945         0.603535        -0.826444
 H         1.878428        -0.979623        -0.015804
 H        -2.329277        -0.281998         1.762317
 H        -3.407398         1.803768         0.955154
 H        -1.834505         1.937626         0.192647
 H        -3.256024         1.249132        -0.734480
 H        -3.222091        -2.142273         1.792934
 H        -4.510108        -2.595791         0.899470
 H        -2.269380        -3.048712        -0.957089
