19
Iteration:  2387
 C         1.402730        -0.345152        -0.771427
 C         0.072838        -0.117214        -0.110091
 C        -1.056787        -0.494395         0.129515
 C        -2.505994        -0.202791         0.704021
 C        -2.799177         1.200033         0.259100
 O        -3.602054        -0.991900         0.097891
 C        -3.453035        -2.278695         0.775717
 C        -2.532498        -3.322100         0.079295
 O        -2.189080        -4.356345         0.545551
 H         1.206675        -0.589692        -1.901504
 H         2.061158         0.548105        -0.731539
 H         1.880275        -1.116326        -0.200860
 H        -2.616844        -0.274627         1.817452
 H        -3.524663         1.690147         0.940995
 H        -1.803780         1.770208         0.088939
 H        -3.263940         1.128340        -0.702999
 H        -3.082253        -2.157097         1.773100
 H        -4.335649        -2.915122         0.751020
 H        -2.249842        -2.998474        -0.993370
