19
Iteration:  2367charge 0 multiplicity 1
 C         1.393939        -0.340448        -0.826952
 C         0.129208        -0.455457        -0.057779
 C        -1.078635        -0.442120         0.201043
 C        -2.471815        -0.217545         0.590116
 C        -2.924485         1.234487         0.267004
 O        -3.533195        -1.063704         0.167361
 C        -3.519906        -2.339356         0.693764
 C        -2.495344        -3.206005         0.042451
 O        -2.144709        -4.163345         0.614626
 H         1.040990        -0.065871        -1.858254
 H         2.079826         0.381648        -0.403355
 H         1.909267        -1.270383        -0.862454
 H        -2.421143        -0.243360         1.701889
 H        -3.777391         1.534792         0.912576
 H        -2.057093         1.936674         0.410896
 H        -3.276499         1.340345        -0.747105
 H        -3.308247        -2.254316         1.754364
 H        -4.480338        -2.881516         0.622264
 H        -2.102169        -2.860068        -1.024120
