19
Iteration:  2136charge 0 multiplicity 1
 C         1.054255        -1.376951        -0.594895
 C        -0.273606        -0.891924        -0.274306
 C        -1.369555        -0.430686         0.189410
 C        -2.669587         0.009286         0.709898
 C        -3.287579         1.371933         0.243302
 O        -3.591235        -0.936657         0.207144
 C        -3.138357        -2.172692         0.742800
 C        -2.074722        -2.870167        -0.092673
 O        -1.384680        -3.640033         0.495104
 H         0.891279        -2.274853        -1.284887
 H         1.689809        -0.647042        -1.068946
 H         1.488587        -1.761273         0.305413
 H        -2.724814        -0.070987         1.826436
 H        -4.342513         1.211387         0.076039
 H        -3.237911         2.144767         0.977517
 H        -2.783569         1.676090        -0.695536
 H        -2.683267        -2.204232         1.767618
 H        -4.092937        -2.808411         0.795719
 H        -2.301492        -2.883733        -1.092467
