19
Iteration:  4802charge 0 multiplicity 1
 C         1.908806        -0.042571         0.380444
 C         0.427683        -0.316562         0.731718
 C        -0.749888        -0.485437         0.821776
 C        -2.225491        -0.423771         1.042646
 C        -2.787627         1.024054         1.110216
 O        -3.022573        -1.023084        -0.021758
 C        -2.805364        -2.403101         0.156918
 C        -3.742051        -3.115215        -0.886357
 O        -3.528096        -4.199136        -1.412660
 H         1.867925         0.334898        -0.697015
 H         2.224915         0.750430         1.224569
 H         2.464459        -1.008809         0.551871
 H        -2.617836        -0.907772         2.020370
 H        -2.479517         1.528783         2.009278
 H        -2.511498         1.586367         0.186121
 H        -3.900735         1.048973         1.139104
 H        -1.701654        -2.726833         0.058431
 H        -3.082790        -2.692848         1.186128
 H        -4.636276        -2.417677        -1.157506
