19
Iteration:  3275
 C         0.998991        -1.202193        -0.641495
 C        -0.257665        -0.698194        -0.015355
 C        -1.260171        -0.263650         0.527050
 C        -2.550124         0.085648         0.964913
 C        -3.121072         1.418766         0.473115
 O        -3.406506        -0.959173         0.404060
 C        -2.970340        -2.237346         0.712409
 C        -2.176519        -2.914942        -0.380188
 O        -1.992328        -4.127118        -0.263810
 H         0.854732        -2.231251        -1.142065
 H         1.312445        -0.431830        -1.347360
 H         1.678285        -1.291708         0.260691
 H        -2.561127         0.058851         2.088776
 H        -2.295748         2.063181         0.130758
 H        -3.790123         1.347814        -0.425260
 H        -3.580600         2.043362         1.236159
 H        -2.380678        -2.352662         1.693346
 H        -3.807077        -2.912181         0.854349
 H        -1.845386        -2.368165        -1.364471
