19
Iteration:   518charge 0 multiplicity 1
 C         1.661810         0.596633        -0.003955
 C         0.271486         0.189106         0.124148
 C        -0.931272         0.036401         0.126866
 C        -2.417788        -0.086009         0.141530
 C        -3.292343         0.724281        -0.790719
 O        -2.949543        -1.365067        -0.135528
 C        -2.348389        -2.412701         0.663197
 C        -3.202206        -3.706134         0.479244
 O        -3.351299        -4.741638         1.102214
 H         2.343122        -0.201984         0.285230
 H         1.820141         0.839703        -1.053176
 H         1.900557         1.337559         0.657363
 H        -2.610811         0.114456         1.238522
 H        -4.161667         1.092460        -0.299340
 H        -2.973552         1.618350        -1.305017
 H        -3.741488        -0.055169        -1.447320
 H        -1.318667        -2.696431         0.220389
 H        -2.291432        -2.108111         1.673527
 H        -3.911461        -3.563060        -0.377436
