19
Iteration:   610
 C         1.701534         0.667712        -0.144490
 C         0.300227         0.316416        -0.077153
 C        -0.842127        -0.044087         0.120214
 C        -2.310462        -0.176908         0.149072
 C        -3.058467         0.903996        -0.758685
 O        -2.950437        -1.469573        -0.073526
 C        -2.948854        -2.458257         1.059217
 C        -3.595253        -3.777971         0.687556
 O        -2.893464        -4.749634         0.725133
 H         1.940074         1.561508         0.413380
 H         2.254469        -0.204408         0.158645
 H         1.984314         0.951570        -1.217068
 H        -2.685025         0.082362         1.172871
 H        -4.024580         0.442861        -1.094222
 H        -3.335261         1.822234        -0.212009
 H        -2.533346         1.019516        -1.685984
 H        -1.917017        -2.805149         1.204192
 H        -3.306004        -2.009269         1.991829
 H        -4.681176        -3.762083         0.342206
