19
Iteration:  1677charge 0 multiplicity 1
 C         1.552140         0.307669        -0.149905
 C         0.147350         0.158164        -0.088255
 C        -1.053417        -0.028927         0.168966
 C        -2.459150        -0.192642         0.459178
 C        -3.194844         1.059028         0.028893
 O        -2.819642        -1.385347        -0.264366
 C        -2.275688        -2.529051         0.297629
 C        -3.331724        -3.621109         0.247693
 O        -3.226873        -4.574039         0.929221
 H         1.848187         0.613258         0.868850
 H         1.998536        -0.571048        -0.506328
 H         1.718711         1.158268        -0.804621
 H        -2.579040        -0.319826         1.547058
 H        -3.460390         1.597095         0.952241
 H        -2.485425         1.601372        -0.703056
 H        -4.159768         1.014552        -0.424163
 H        -1.429752        -3.030157        -0.123714
 H        -1.984843        -2.421670         1.361919
 H        -4.198838        -3.356992        -0.452250
