19
Iteration:  4234charge 0 multiplicity 1
 C         1.365326        -1.186886        -0.068161
 C         0.036379        -0.583270         0.164640
 C        -1.001158        -0.159549         0.702767
 C        -2.438188        -0.032760         1.055155
 C        -3.019010         1.456514         0.992237
 O        -3.357038        -0.980059         0.303257
 C        -3.117032        -2.381336         0.582034
 C        -2.476254        -2.931986        -0.770227
 O        -2.638007        -4.070025        -1.153761
 H         2.065774        -0.339666        -0.164338
 H         1.676653        -1.670727         0.843826
 H         1.470257        -1.901515        -0.958790
 H        -2.448558        -0.406951         2.056629
 H        -2.556396         2.086073         1.802211
 H        -2.939911         1.800228        -0.080067
 H        -4.049928         1.335958         1.304119
 H        -2.369518        -2.512855         1.347926
 H        -4.142046        -2.752732         0.756212
 H        -1.843619        -2.199412        -1.326707
