19
Iteration:  2813charge 0 multiplicity 1
 C         1.309161        -0.628406        -0.735044
 C         0.046372        -0.299424        -0.066269
 C        -1.113268        -0.121878         0.329650
 C        -2.507586         0.073593         0.816477
 C        -3.063037         1.287900         0.107048
 O        -3.319823        -1.169358         0.537259
 C        -2.902910        -2.370742         1.134913
 C        -2.744597        -3.228929        -0.159879
 O        -2.401762        -4.399158        -0.184115
 H         2.279781        -0.297344        -0.205256
 H         1.522143        -1.679933        -1.061761
 H         1.355725        -0.034962        -1.662115
 H        -2.431117         0.205317         1.919740
 H        -4.147115         1.459595         0.298249
 H        -2.592427         2.303440         0.400662
 H        -2.939510         1.109251        -1.005814
 H        -1.968421        -2.349874         1.709267
 H        -3.695110        -2.725826         1.894694
 H        -2.978184        -2.654050        -1.137361
