19
Iteration:  4190
 C         1.274041        -1.294724        -0.110343
 C         0.104419        -0.609678         0.310447
 C        -1.045040        -0.217091         0.470873
 C        -2.344220        -0.003863         1.134595
 C        -3.104219         1.342145         0.884232
 O        -3.426476        -0.919963         0.567718
 C        -3.145345        -2.299143         0.435578
 C        -2.446515        -2.851419        -0.780208
 O        -2.483069        -4.008035        -1.089450
 H         2.185347        -1.063128         0.438655
 H         1.043489        -2.326686        -0.185053
 H         1.327359        -0.933016        -1.183068
 H        -2.153473        -0.102521         2.205424
 H        -2.931306         2.047826         1.717678
 H        -2.715449         1.724087        -0.100667
 H        -4.196627         1.216885         0.757482
 H        -2.405803        -2.607642         1.244156
 H        -4.056991        -2.977374         0.677568
 H        -1.912497        -2.113562        -1.476921
