19
Iteration:  1243
 C         1.596176         0.099057         0.153128
 C         0.212129        -0.011194         0.098479
 C        -1.005604        -0.030020        -0.006216
 C        -2.493092         0.031771         0.266967
 C        -3.418890         1.171531        -0.448931
 O        -3.201776        -1.278251         0.233261
 C        -2.370414        -2.393069         0.303045
 C        -3.154963        -3.652078         0.301871
 O        -2.828866        -4.747970         0.742439
 H         2.118803        -0.008075        -0.805263
 H         1.848740         1.073541         0.484241
 H         2.058724        -0.596234         0.831895
 H        -2.535312         0.278533         1.359083
 H        -4.238285         0.684929        -1.046542
 H        -3.732641         1.725318         0.450148
 H        -2.850614         1.833255        -1.056969
 H        -1.738686        -2.428202        -0.573822
 H        -1.661377        -2.352010         1.143385
 H        -4.023673        -3.614441        -0.478925
