19
Iteration:  1595charge 0 multiplicity 1
 C         1.625500         0.635718        -0.178587
 C         0.276998         0.333438         0.169376
 C        -0.883735         0.061437         0.142179
 C        -2.335688        -0.222117         0.432564
 C        -3.190041         0.972515        -0.155116
 O        -2.904097        -1.523640         0.049856
 C        -2.179850        -2.771817         0.117717
 C        -3.440266        -3.740615         0.069721
 O        -3.523448        -4.502135         1.031210
 H         2.074013        -0.318847        -0.415426
 H         1.632754         1.212283        -1.176279
 H         2.199882         1.192769         0.547908
 H        -2.440922        -0.147618         1.545787
 H        -2.766058         1.540380        -0.972445
 H        -4.129729         0.619427        -0.493565
 H        -3.588229         1.383685         0.814528
 H        -1.488645        -2.921373        -0.718177
 H        -1.761859        -2.947888         1.110115
 H        -4.233646        -3.649614        -0.767791
