19
Iteration:  1382
 C         1.631330         0.427254        -0.406040
 C         0.286986         0.263201         0.230504
 C        -0.917281         0.159816         0.351804
 C        -2.298797        -0.050105         0.532959
 C        -3.263195         0.700320        -0.414768
 O        -2.748651        -1.331340         0.022939
 C        -2.715592        -2.415177         0.896350
 C        -3.251127        -3.640193         0.099995
 O        -3.267882        -4.820142         0.498505
 H         2.409641         0.616628         0.396836
 H         1.795466        -0.520497        -0.936307
 H         1.599937         1.284926        -1.167327
 H        -2.498511         0.059131         1.639352
 H        -3.208293         1.778695        -0.211226
 H        -2.993051         0.441716        -1.460835
 H        -4.282652         0.353884        -0.307064
 H        -1.716877        -2.465321         1.330085
 H        -3.534866        -2.385312         1.646619
 H        -3.823871        -3.309108        -0.829634
