19
Iteration:   479
 C         1.492402         0.366753         0.000553
 C         0.057448         0.396547         0.097965
 C        -1.097978         0.084231         0.207265
 C        -2.456531        -0.091124         0.154702
 C        -3.168105         0.950118        -0.753549
 O        -2.842069        -1.434725        -0.218690
 C        -2.189379        -2.671866         0.414296
 C        -3.167972        -3.828984         0.385435
 O        -3.301747        -4.516062         1.364431
 H         1.801075        -0.524366        -0.563998
 H         1.925917         1.261657        -0.504204
 H         1.998216         0.395482         1.098655
 H        -2.884789         0.149303         1.119867
 H        -4.015950         1.328429        -0.085010
 H        -2.404445         1.672012        -1.047140
 H        -3.509310         0.508032        -1.669262
 H        -1.130430        -2.932200         0.283098
 H        -2.296300        -2.349466         1.526703
 H        -3.687575        -3.986648        -0.624036
