19
Iteration:   890charge 0 multiplicity 1
 C         1.405144        -0.209382        -0.228202
 C         0.015664        -0.166814         0.039563
 C        -1.113052         0.215548         0.327035
 C        -2.551845         0.139666         0.334518
 C        -3.393730         0.939987        -0.632442
 O        -2.894894        -1.225374        -0.071768
 C        -2.714535        -2.192165         0.917731
 C        -2.570801        -3.572019         0.299975
 O        -2.855992        -4.673684         0.734498
 H         1.951947         0.616012         0.284664
 H         1.713530        -1.158211         0.259727
 H         1.656462        -0.274875        -1.322965
 H        -3.022498         0.203237         1.344125
 H        -4.217531         1.540124        -0.203418
 H        -2.900928         1.717802        -1.223862
 H        -3.843603         0.176376        -1.183115
 H        -1.737415        -2.034230         1.554513
 H        -3.507089        -1.960041         1.724123
 H        -1.850084        -3.519093        -0.603976
