19
Iteration:  1166
 C         1.536960        -0.300903        -0.021994
 C         0.105132         0.085237         0.282080
 C        -1.093118         0.281239         0.365047
 C        -2.635001         0.170426         0.351217
 C        -3.558128         0.962450        -0.702357
 O        -3.020946        -1.201235         0.091856
 C        -2.187604        -2.403746         0.414224
 C        -3.091791        -3.554123         0.388916
 O        -2.734755        -4.699253         0.611848
 H         2.274069         0.516442         0.055582
 H         1.846475        -1.053446         0.691636
 H         1.661043        -0.738808        -1.039540
 H        -2.890004         0.356248         1.422309
 H        -4.584593         1.126934        -0.311037
 H        -3.078763         1.913933        -0.968915
 H        -3.586420         0.240296        -1.531255
 H        -1.437584        -2.422389        -0.365765
 H        -1.732476        -2.351630         1.406542
 H        -4.147824        -3.279677         0.393995
