19
Iteration:   354charge 0 multiplicity 1
 C         1.541603         0.074432         0.218073
 C         0.121150         0.414885        -0.046985
 C        -1.053267         0.129274        -0.054567
 C        -2.485091        -0.140520         0.107504
 C        -3.466729         0.872616        -0.673057
 O        -2.747901        -1.464218        -0.340428
 C        -2.223878        -2.616867         0.306234
 C        -3.239417        -3.606733         0.531492
 O        -3.117523        -4.325503         1.524535
 H         2.227290         0.908412         0.578466
 H         1.582597        -0.730470         0.983819
 H         1.953633        -0.244793        -0.750615
 H        -2.778790        -0.148150         1.117251
 H        -2.897986         1.415253        -1.402883
 H        -4.328363         0.325000        -1.096834
 H        -3.778671         1.618280         0.067447
 H        -1.369194        -2.946764        -0.291051
 H        -1.903853        -2.450574         1.338413
 H        -4.046252        -3.844151        -0.212571
