19
Iteration:  4562charge 0 multiplicity 1
 C         1.453933        -0.610673         0.001239
 C         0.124105        -0.565423         0.598848
 C        -0.947189        -0.134794         0.973838
 C        -2.410581        -0.208155         1.128854
 C        -2.928026         1.218762         0.928235
 O        -3.000161        -1.032083         0.169584
 C        -2.715191        -2.350698         0.271807
 C        -2.825182        -3.073081        -1.068247
 O        -3.392668        -4.142120        -1.083179
 H         1.557605        -0.620245        -1.106717
 H         1.925616         0.214809         0.508697
 H         1.976928        -1.511844         0.425263
 H        -2.747337        -0.580213         2.168168
 H        -2.301857         1.747232         1.715677
 H        -2.645487         1.485129        -0.078247
 H        -4.019763         1.343586         1.144116
 H        -1.686716        -2.561949         0.434825
 H        -3.172807        -2.738323         1.195132
 H        -2.497264        -2.504121        -1.923227
