19
Iteration:  3082
 C         1.143286        -0.938001        -0.832529
 C        -0.120213        -0.606388        -0.185032
 C        -1.199402        -0.457575         0.402485
 C        -2.478640        -0.097074         0.952985
 C        -2.838104         1.243763         0.409737
 O        -3.559254        -0.919947         0.520000
 C        -3.517417        -2.308279         0.748122
 C        -2.495021        -2.967641        -0.219149
 O        -1.685941        -3.882073        -0.030309
 H         2.000486        -1.103265        -0.228683
 H         1.076949        -1.936419        -1.302448
 H         1.492347        -0.153266        -1.564672
 H        -2.397748        -0.288716         2.029655
 H        -3.865159         1.387065         0.083058
 H        -2.570733         2.004924         1.186360
 H        -2.159418         1.490148        -0.426053
 H        -3.435459        -2.632969         1.816757
 H        -4.517935        -2.737631         0.464865
 H        -2.468200        -2.812161        -1.285284
