19
Iteration:   213charge 0 multiplicity 1
 C         1.657020         0.461034        -0.167812
 C         0.199657         0.365596        -0.067162
 C        -0.996414         0.109382         0.049242
 C        -2.452298        -0.013688         0.164712
 C        -2.837827         0.814950        -1.089246
 O        -3.088983        -1.398864        -0.036341
 C        -2.526278        -2.485802         0.692249
 C        -3.503781        -3.730950         0.924536
 O        -3.131043        -4.854274         1.214902
 H         2.137194        -0.505021        -0.299091
 H         1.904451         1.046650        -1.041263
 H         2.037400         0.987137         0.709948
 H        -2.721639         0.506458         1.105897
 H        -2.437872         0.313996        -1.926344
 H        -3.950350         0.883069        -1.157607
 H        -2.388342         1.809071        -1.030962
 H        -1.663223        -2.833472         0.089832
 H        -2.205272        -2.241227         1.752051
 H        -4.542676        -3.396860         0.812991
