19
Iteration:  1603
 C         1.657745         0.610522        -0.219880
 C         0.275016         0.292087         0.239149
 C        -0.953176         0.107535         0.171124
 C        -2.291875        -0.145529         0.354581
 C        -3.249069         0.968667        -0.117327
 O        -2.855276        -1.516274         0.071699
 C        -2.206688        -2.774618         0.081643
 C        -3.458349        -3.770412         0.090785
 O        -3.507545        -4.500288         1.027660
 H         2.241651        -0.395130        -0.191006
 H         1.479284         0.991983        -1.269879
 H         2.151820         1.322060         0.471282
 H        -2.306679        -0.254519         1.456405
 H        -2.833601         1.750125        -0.781299
 H        -3.953557         0.361990        -0.730216
 H        -3.706272         1.577400         0.612860
 H        -1.452201        -2.839793        -0.764823
 H        -1.780130        -3.290821         1.004137
 H        -4.186729        -3.640972        -0.649629
