19
Iteration:  1630
 C         1.725119         0.505351        -0.220014
 C         0.321124         0.215434         0.143011
 C        -0.936511         0.112500         0.247122
 C        -2.356640        -0.163101         0.539891
 C        -3.342156         0.850936        -0.180104
 O        -2.902750        -1.361344        -0.038233
 C        -2.184966        -2.613205         0.051712
 C        -3.338006        -3.664981         0.204662
 O        -3.530945        -4.614802         1.016423
 H         2.375062        -0.091983         0.361895
 H         1.748969         0.210444        -1.268504
 H         1.985577         1.566854        -0.096611
 H        -2.492245        -0.256080         1.639572
 H        -3.108787         1.901119        -0.256608
 H        -3.637282         0.298406        -1.084673
 H        -4.228498         1.027379         0.509982
 H        -1.794008        -2.751001        -0.959059
 H        -1.361480        -2.843778         0.695057
 H        -4.071442        -3.580589        -0.678689
