19
Iteration:  2588
 C         1.324028        -0.555311        -0.609381
 C         0.097193        -0.009644         0.058292
 C        -1.078674        -0.181602         0.279767
 C        -2.495184         0.015048         0.644360
 C        -3.301252         1.082304        -0.064983
 O        -3.151818        -1.207315         0.428856
 C        -2.508789        -2.241228         1.140737
 C        -2.522800        -3.280384         0.009564
 O        -2.996158        -4.423490        -0.082104
 H         1.764671         0.279328        -1.046687
 H         2.013059        -1.201559        -0.039340
 H         0.949162        -1.108805        -1.527574
 H        -2.474166         0.281593         1.719765
 H        -4.276494         1.105844         0.357885
 H        -2.839678         2.094761         0.109782
 H        -3.293076         0.879065        -1.131651
 H        -1.470834        -2.095634         1.342840
 H        -2.914609        -2.508334         2.087789
 H        -2.127507        -2.796916        -0.995919
