19
Iteration:  3076
 C         1.151826        -0.914145        -0.878869
 C        -0.167319        -0.665887        -0.160048
 C        -1.187428        -0.381608         0.420238
 C        -2.450062        -0.105641         1.013120
 C        -2.802805         1.280109         0.391328
 O        -3.580953        -0.923735         0.476421
 C        -3.503225        -2.352977         0.734196
 C        -2.510173        -3.028827        -0.237799
 O        -1.677556        -3.888584        -0.005374
 H         1.866554        -1.160580        -0.006571
 H         1.052071        -1.875866        -1.455000
 H         1.462263        -0.053155        -1.435912
 H        -2.364211        -0.201377         2.125650
 H        -3.874323         1.323808         0.143236
 H        -2.580198         2.105808         1.076484
 H        -2.133499         1.394853        -0.456357
 H        -3.318096        -2.629894         1.780650
 H        -4.546754        -2.606669         0.511773
 H        -2.630172        -2.465556        -1.280553
