19
Iteration:  1682charge 0 multiplicity 1
 C         1.522028         0.292565        -0.152181
 C         0.127533         0.141165        -0.058874
 C        -1.017139         0.004807         0.129144
 C        -2.468187        -0.170027         0.464534
 C        -3.171245         1.108265         0.037476
 O        -2.836613        -1.363084        -0.327113
 C        -2.310631        -2.524864         0.334470
 C        -3.292467        -3.622010         0.276117
 O        -3.228608        -4.646659         0.934142
 H         1.900571         0.661856         0.835640
 H         2.206236        -0.642312        -0.434033
 H         1.784361         1.047210        -0.948334
 H        -2.701914        -0.429909         1.530412
 H        -3.449753         1.501935         1.040112
 H        -2.559255         1.783544        -0.477174
 H        -4.157449         1.006923        -0.523543
 H        -1.296418        -2.865538        -0.146413
 H        -2.043770        -2.410255         1.412594
 H        -4.180596        -3.484056        -0.447700
