19
Iteration:    89
 C         1.732949         0.245904        -0.155597
 C         0.264987         0.492890        -0.181395
 C        -0.899783         0.171047        -0.102403
 C        -2.342817        -0.180079         0.043934
 C        -3.104181         0.523131        -1.047791
 O        -2.874957        -1.508240        -0.085262
 C        -2.776789        -2.121139         1.142306
 C        -3.586813        -3.583922         1.028791
 O        -3.030040        -4.684267         0.960611
 H         2.347994         1.145924        -0.403043
 H         1.973798        -0.047464         0.862127
 H         1.886694        -0.514583        -0.889004
 H        -2.551527         0.157958         1.024253
 H        -4.080394         0.816457        -0.599092
 H        -2.650973         1.396262        -1.370646
 H        -3.251328        -0.203573        -1.801551
 H        -1.765449        -2.533428         1.301545
 H        -3.015589        -1.449860         1.975111
 H        -4.715009        -3.485714         1.091399
