19
Iteration:  1873
 C         1.435388        -0.251332        -0.367817
 C         0.062230        -0.101669         0.051862
 C        -1.155788        -0.059377         0.289983
 C        -2.534270         0.116958         0.616774
 C        -3.102711         0.929633        -0.578743
 O        -3.315468        -1.127929         0.680778
 C        -2.583487        -2.317770         0.979903
 C        -2.939132        -3.417669        -0.057118
 O        -2.581717        -4.572066         0.148452
 H         1.579099        -1.362781        -0.615409
 H         1.534621         0.266510        -1.300115
 H         2.067374         0.053329         0.470627
 H        -2.672260         0.658110         1.572915
 H        -3.902423         1.598561        -0.241984
 H        -2.384552         1.679653        -0.854798
 H        -3.282367         0.270287        -1.419237
 H        -1.486324        -2.171555         0.833663
 H        -2.727961        -2.676744         1.991396
 H        -3.415952        -3.117000        -0.980485
