19
Iteration:  3763charge 0 multiplicity 1
 C         1.427735        -0.709567        -0.475932
 C        -0.006210        -0.666731         0.033398
 C        -1.160938        -0.627860         0.416893
 C        -2.463090        -0.231274         1.052643
 C        -2.650651         1.283295         0.707358
 O        -3.682122        -0.892987         0.483477
 C        -3.599664        -2.358301         0.493900
 C        -2.584293        -2.884275        -0.527314
 O        -1.967134        -3.915640        -0.405518
 H         1.384910        -0.992210        -1.526465
 H         1.992980         0.290167        -0.448269
 H         2.005821        -1.605067         0.024863
 H        -2.341107        -0.627927         2.134416
 H        -1.764134         1.781432         0.274240
 H        -3.322164         1.135472        -0.141668
 H        -3.033855         1.877286         1.539714
 H        -3.565406        -2.690339         1.544152
 H        -4.660032        -2.710842         0.369318
 H        -2.709565        -2.378515        -1.517480
