19
Iteration:   305charge 0 multiplicity 1
 C         1.637947         0.248694         0.128998
 C         0.199937         0.118000         0.009661
 C        -1.029307         0.102431        -0.043180
 C        -2.461796        -0.064866        -0.030675
 C        -3.464963         0.950481        -0.692045
 O        -2.813072        -1.519287        -0.417770
 C        -2.276571        -2.497210         0.438481
 C        -3.355282        -3.590530         0.705595
 O        -3.088785        -4.486735         1.478807
 H         1.931467         0.555913         1.139309
 H         2.137913        -0.722784        -0.038730
 H         2.023171         1.048162        -0.554278
 H        -2.779461        -0.150958         1.052118
 H        -3.635264         1.778469         0.098883
 H        -2.987635         1.354461        -1.608355
 H        -4.424951         0.400244        -0.989042
 H        -1.385419        -3.001339        -0.011063
 H        -1.954216        -2.122409         1.436666
 H        -4.349330        -3.471505         0.232511
