19
Iteration:   105
 C         1.710573         0.331894        -0.149179
 C         0.238537         0.465611        -0.242004
 C        -0.852256        -0.031965         0.016542
 C        -2.383178        -0.110095         0.060263
 C        -3.161853         0.572418        -1.111934
 O        -2.828297        -1.491529        -0.049282
 C        -2.716311        -2.353285         1.143835
 C        -3.589621        -3.501072         1.060598
 O        -3.043857        -4.583414         0.914644
 H         2.309463         1.014369        -0.736871
 H         2.066018         0.432201         0.905759
 H         1.975039        -0.687739        -0.559205
 H        -2.718689         0.396682         1.024843
 H        -3.900955         1.289918        -0.757948
 H        -2.441531         1.145109        -1.833176
 H        -3.641421        -0.287552        -1.699957
 H        -1.672495        -2.570215         1.360944
 H        -3.158080        -1.876072         2.056526
 H        -4.664030        -3.363562         0.989607
