19
Iteration:  1261
 C         1.700734         0.222662         0.090635
 C         0.170168        -0.087788         0.202077
 C        -1.056524        -0.044016        -0.075566
 C        -2.450043         0.042303         0.381111
 C        -3.331254         0.999620        -0.323734
 O        -3.209311        -1.139842         0.073085
 C        -2.473616        -2.389058         0.371163
 C        -3.234510        -3.727579         0.188384
 O        -2.797795        -4.694623         0.776322
 H         2.084185        -0.322290        -0.791308
 H         1.846211         1.310272        -0.028788
 H         2.309406        -0.177508         0.954495
 H        -2.321179         0.230834         1.438548
 H        -3.813809         0.412481        -1.077105
 H        -4.059056         1.494634         0.304047
 H        -2.737763         1.673648        -1.028060
 H        -1.715060        -2.582005        -0.485280
 H        -2.074832        -2.311739         1.398883
 H        -4.164747        -3.794053        -0.348306
