19
Iteration:  4014
 C         1.181702        -1.300262        -0.357262
 C        -0.176076        -0.957237         0.028372
 C        -1.280963        -0.595164         0.420712
 C        -2.535305        -0.111567         1.104700
 C        -2.764103         1.365263         0.750550
 O        -3.653541        -0.902986         0.698976
 C        -3.350859        -2.283035         0.505002
 C        -2.452405        -2.645769        -0.662067
 O        -1.718509        -3.583748        -0.714480
 H         1.275283        -1.065549        -1.379282
 H         1.853208        -0.714719         0.192699
 H         1.318145        -2.329477        -0.088090
 H        -2.580000        -0.315301         2.217797
 H        -2.021854         1.959353         1.216443
 H        -2.571872         1.384030        -0.302795
 H        -3.846888         1.544155         0.851105
 H        -2.947900        -2.752416         1.431407
 H        -4.339243        -2.654786         0.144978
 H        -2.489421        -2.116613        -1.609126
