19
Iteration:  1178
 C         1.535037        -0.305908         0.031767
 C         0.074719         0.162631         0.105150
 C        -1.103917         0.349555         0.359093
 C        -2.594223         0.152074         0.442836
 C        -3.459773         0.882266        -0.652043
 O        -3.020363        -1.281632         0.139779
 C        -2.160652        -2.310503         0.275504
 C        -3.173998        -3.588120         0.412581
 O        -2.766686        -4.693627         0.623537
 H         2.224351         0.584361        -0.042886
 H         1.719481        -0.760353         1.030982
 H         1.731017        -1.072282        -0.736004
 H        -3.037874         0.454416         1.421609
 H        -4.552358         0.856722        -0.375357
 H        -3.177792         1.958837        -0.795557
 H        -3.345498         0.460902        -1.633863
 H        -1.283720        -2.621391        -0.322816
 H        -1.730255        -2.250446         1.295635
 H        -4.211355        -3.324464         0.183927
