19
Iteration:  1568charge 0 multiplicity 1
 C         1.614476         0.713428        -0.135146
 C         0.204403         0.340076        -0.106353
 C        -0.890738        -0.147285         0.236429
 C        -2.341884        -0.298564         0.548743
 C        -3.075318         0.856236        -0.107811
 O        -2.972894        -1.394475        -0.145356
 C        -2.207568        -2.564221         0.231034
 C        -3.286172        -3.718051         0.172962
 O        -3.631281        -4.572282         0.986547
 H         2.156442        -0.044252        -0.808935
 H         1.840058         1.675645        -0.568298
 H         2.085887         0.722600         0.895766
 H        -2.490839        -0.409445         1.644879
 H        -2.950459         0.748667        -1.194651
 H        -4.162090         0.551355         0.180226
 H        -2.995215         1.785536         0.385240
 H        -1.455728        -2.784883        -0.593253
 H        -1.681375        -2.430529         1.239071
 H        -3.764677        -3.752317        -0.781496
