19
Iteration:  2686
 C         1.546548        -0.253402        -0.547787
 C         0.186495        -0.203098        -0.108950
 C        -1.032551        -0.100794         0.074644
 C        -2.441813        -0.074769         0.674706
 C        -3.138610         0.966847        -0.129210
 O        -3.383722        -1.230070         0.805230
 C        -2.767639        -2.404081         1.180113
 C        -2.771704        -3.160058        -0.089692
 O        -2.848161        -4.371900        -0.159198
 H         1.454681        -0.908403        -1.391650
 H         1.927917         0.676948        -0.922805
 H         2.203483        -0.862575         0.160870
 H        -2.236652         0.254574         1.714649
 H        -3.991243         1.384395         0.332379
 H        -2.439098         1.806297        -0.441891
 H        -3.477363         0.501293        -0.998482
 H        -1.678990        -2.150201         1.542812
 H        -3.138673        -3.035513         1.998724
 H        -2.750546        -2.497623        -1.047867
