19
Iteration:  1077
 C         1.587255        -0.083582        -0.007012
 C         0.099262         0.099720        -0.134804
 C        -1.094948         0.055612         0.064504
 C        -2.485615         0.029982         0.341103
 C        -3.165688         1.022371        -0.530247
 O        -3.150764        -1.235683         0.008012
 C        -2.900589        -2.279263         0.872602
 C        -3.220284        -3.730723         0.448585
 O        -2.355205        -4.618697         0.553699
 H         1.705442        -0.828512         0.783693
 H         2.020050        -0.517838        -0.880320
 H         2.201611         0.840752         0.269138
 H        -2.638464         0.310133         1.383509
 H        -4.114790         1.372374        -0.185105
 H        -2.470467         1.856559        -0.689435
 H        -3.394644         0.533200        -1.544867
 H        -1.949720        -2.226783         1.350385
 H        -3.668408        -2.303720         1.707454
 H        -4.267672        -3.953230         0.079943
