19
Iteration:  1870
 C         1.435151        -0.258333        -0.377142
 C         0.101777        -0.068424         0.040044
 C        -1.126621        -0.079586         0.326585
 C        -2.547454         0.116913         0.621586
 C        -3.121260         0.899155        -0.575997
 O        -3.322268        -1.129208         0.667033
 C        -2.592708        -2.297190         0.956706
 C        -2.937982        -3.431126        -0.048726
 O        -2.590669        -4.557663         0.158742
 H         1.537948        -1.306057        -0.610146
 H         1.571097         0.356099        -1.319133
 H         2.083012        -0.003937         0.502936
 H        -2.676191         0.585201         1.604401
 H        -3.912612         1.531576        -0.237221
 H        -2.339087         1.658884        -0.851425
 H        -3.352545         0.322920        -1.424182
 H        -1.539588        -2.217701         0.792440
 H        -2.711768        -2.638406         2.003812
 H        -3.442644        -3.091595        -1.047958
