19
Iteration:  1980
 C         1.358762        -0.758529        -0.243514
 C        -0.013367        -0.251919        -0.148514
 C        -1.188133        -0.103086         0.052050
 C        -2.564394         0.156008         0.470748
 C        -3.362779         1.114144        -0.438158
 O        -3.362323        -0.990790         0.878304
 C        -2.910123        -2.339094         1.200554
 C        -2.524899        -3.252635        -0.053917
 O        -2.125159        -4.387835        -0.085221
 H         2.024533        -0.398646         0.534596
 H         1.371152        -1.857335        -0.167643
 H         1.905320        -0.659517        -1.197821
 H        -2.555467         0.844916         1.328175
 H        -4.314193         1.286517         0.104275
 H        -2.780002         2.030373        -0.698550
 H        -3.641718         0.621994        -1.349977
 H        -2.053961        -2.410878         1.872623
 H        -3.848760        -2.625251         1.730073
 H        -2.687592        -2.756411        -0.986307
