19
Iteration:   705charge 0 multiplicity 1
 C         1.513813         0.184713        -0.263858
 C         0.097345         0.253956        -0.001607
 C        -1.077706         0.222308         0.324677
 C        -2.453498         0.025454         0.411412
 C        -3.070132         0.833592        -0.803651
 O        -2.970398        -1.231903         0.070612
 C        -2.678494        -2.386736         0.915884
 C        -3.097510        -3.759936         0.276967
 O        -2.948633        -4.827536         0.803844
 H         1.699284         0.053230        -1.336171
 H         2.099014         1.018973         0.149733
 H         1.898101        -0.731148         0.189800
 H        -2.831318         0.315523         1.388989
 H        -4.097569         1.152985        -0.490020
 H        -2.423522         1.708364        -0.873593
 H        -3.087184         0.147811        -1.586090
 H        -1.552570        -2.422601         1.048105
 H        -3.153219        -2.407527         1.903507
 H        -3.509727        -3.586757        -0.761642
