19
Iteration:  2827
 C         1.312317        -0.665336        -0.773619
 C         0.021942        -0.387548        -0.059250
 C        -1.072299        -0.007274         0.321365
 C        -2.433729         0.096645         0.935559
 C        -3.147785         1.225690         0.153369
 O        -3.339049        -0.965572         0.523979
 C        -2.978688        -2.288936         1.024294
 C        -2.720423        -3.352650        -0.147607
 O        -2.323204        -4.499889        -0.202709
 H         2.129625        -0.125333        -0.209546
 H         1.391555        -1.724396        -0.591920
 H         1.268201        -0.356024        -1.879673
 H        -2.481177         0.204023         2.042487
 H        -4.196100         1.329628         0.448827
 H        -2.473157         2.152730         0.265053
 H        -3.137317         0.922457        -0.867338
 H        -2.005246        -2.221415         1.517099
 H        -3.681073        -2.685047         1.738066
 H        -2.841326        -2.706230        -1.131095
