19
Iteration:  2751charge 0 multiplicity 1
 C         1.430245        -0.258442        -0.620949
 C         0.004689        -0.475384        -0.216595
 C        -1.032559        -0.149974         0.269643
 C        -2.384158         0.031966         0.781351
 C        -3.052023         1.063125        -0.083221
 O        -3.341800        -1.073197         0.890718
 C        -2.911645        -2.350446         1.026020
 C        -2.788175        -3.261840        -0.290866
 O        -2.619235        -4.443552        -0.093423
 H         1.991135        -1.081633        -0.168889
 H         1.544071        -0.178079        -1.689772
 H         1.723105         0.754445        -0.214790
 H        -2.371803         0.431806         1.825054
 H        -3.989622         1.330996         0.349524
 H        -2.332260         1.934257        -0.080692
 H        -3.069550         0.665693        -1.045232
 H        -1.819335        -2.377524         1.343645
 H        -3.571230        -2.840705         1.734334
 H        -2.784427        -2.777545        -1.262033
