19
Iteration:  1341
 C         1.570502         0.343377        -0.290445
 C         0.159291         0.278467         0.078911
 C        -1.012667         0.124909         0.350589
 C        -2.475790        -0.093236         0.462692
 C        -3.109765         1.134724        -0.353593
 O        -2.773046        -1.405453        -0.057945
 C        -2.670903        -2.508274         0.780138
 C        -3.322439        -3.732444         0.186040
 O        -3.055299        -4.854685         0.607248
 H         2.207413        -0.341940         0.277007
 H         1.734062         0.105418        -1.303040
 H         1.997790         1.323986        -0.131586
 H        -2.868555        -0.066091         1.472583
 H        -2.245907         1.646523        -0.834924
 H        -3.751870         0.750561        -1.214839
 H        -3.732439         1.711353         0.277278
 H        -1.636309        -2.867159         1.048477
 H        -3.131679        -2.225011         1.756420
 H        -3.831663        -3.678450        -0.777839
