19
Iteration:  2205charge 0 multiplicity 1
 C         0.867710        -1.410894        -0.674074
 C        -0.219196        -0.537878        -0.269345
 C        -1.273160        -0.264066         0.167374
 C        -2.618665        -0.027676         0.742619
 C        -3.220051         1.372890         0.408091
 O        -3.505534        -0.926647         0.100275
 C        -3.280558        -2.290834         0.473658
 C        -2.035040        -3.039095        -0.108589
 O        -1.428204        -3.705744         0.759956
 H         0.830224        -2.229967         0.074981
 H         0.707161        -1.908238        -1.678811
 H         1.910466        -0.991408        -0.588865
 H        -2.566260        -0.210077         1.854376
 H        -4.001409         1.578468         1.138263
 H        -2.506406         2.234361         0.394823
 H        -3.726332         1.211341        -0.501188
 H        -3.256863        -2.315058         1.579071
 H        -4.098234        -2.961637         0.188339
 H        -1.822634        -3.091949        -1.171593
