19
Iteration:  2212
 C         0.912589        -1.380226        -0.690309
 C        -0.220336        -0.604101        -0.326114
 C        -1.265405        -0.258391         0.274365
 C        -2.534385        -0.005751         0.701336
 C        -3.255908         1.294374         0.415267
 O        -3.513366        -0.905186         0.105106
 C        -3.278594        -2.255717         0.444814
 C        -2.027159        -3.060356        -0.087694
 O        -1.485946        -3.687603         0.770285
 H         1.007005        -2.174098         0.094358
 H         0.667486        -1.987897        -1.531268
 H         1.748165        -0.742613        -0.720124
 H        -2.661979        -0.162485         1.789707
 H        -3.955503         1.443382         1.225663
 H        -2.677592         2.235119         0.336709
 H        -3.852059         1.120283        -0.494396
 H        -3.118973        -2.379797         1.552576
 H        -4.223850        -2.833644         0.162335
 H        -1.730028        -2.965754        -1.270635
