19
Iteration:   848
 C         1.384585        -0.398860        -0.015710
 C         0.088873         0.376249        -0.014379
 C        -1.106580         0.244583        -0.110138
 C        -2.471804         0.086431         0.158293
 C        -3.523297         1.042841        -0.579465
 O        -2.979520        -1.365122         0.145331
 C        -2.546072        -2.309050         1.030873
 C        -2.446867        -3.629611         0.265433
 O        -3.035615        -4.648458         0.711656
 H         1.729373        -0.524061         1.023105
 H         1.255430        -1.348288        -0.523192
 H         2.219045         0.138273        -0.631854
 H        -2.465237         0.419955         1.240330
 H        -4.357411         1.366218         0.013376
 H        -2.952826         1.944178        -0.939301
 H        -3.892995         0.496540        -1.409473
 H        -1.513893        -2.202141         1.475813
 H        -3.283412        -2.590299         1.833947
 H        -1.899357        -3.646936        -0.684349
