19
Iteration:  1093charge 0 multiplicity 1
 C         1.506786        -0.146514         0.022497
 C         0.107338         0.090925        -0.203804
 C        -1.026628        -0.020981         0.291689
 C        -2.558187         0.043936         0.319430
 C        -3.225910         1.149541        -0.611184
 O        -3.173289        -1.255567        -0.084582
 C        -2.742843        -2.300520         0.890974
 C        -3.164577        -3.683203         0.487925
 O        -2.394655        -4.659532         0.535079
 H         1.678387        -0.407043         1.082208
 H         1.977756        -0.810428        -0.776176
 H         2.003664         0.810012        -0.067509
 H        -2.928200         0.169631         1.359797
 H        -4.018840         1.644341         0.011560
 H        -2.571933         1.998948        -0.841039
 H        -3.647699         0.598381        -1.397448
 H        -1.606201        -2.324620         0.821478
 H        -3.132628        -2.019521         1.869186
 H        -4.260226        -3.840141         0.276095
