19
Iteration:  3964
 C         1.139261        -1.500049        -0.491406
 C        -0.102109        -0.782608         0.134300
 C        -1.168295        -0.341113         0.576979
 C        -2.580071        -0.029987         1.052332
 C        -3.032841         1.523486         0.898325
 O        -3.554564        -0.873962         0.438830
 C        -3.231690        -2.351715         0.543881
 C        -2.378214        -2.754993        -0.641159
 O        -1.791774        -3.826567        -0.718727
 H         1.805746        -0.674485        -0.884072
 H         1.637154        -2.060121         0.375740
 H         0.749996        -2.238147        -1.284870
 H        -2.629171        -0.294912         2.111192
 H        -1.989267         1.915769         1.010219
 H        -3.598301         1.991640         0.034428
 H        -3.604919         1.653067         1.763852
 H        -2.789980        -2.385741         1.522990
 H        -4.180017        -2.868589         0.456827
 H        -2.446524        -2.171272        -1.609547
