19
Iteration:   577
 C         1.629159         0.691693         0.009750
 C         0.271949         0.267703        -0.185310
 C        -0.909751         0.040853        -0.150435
 C        -2.338233        -0.132097         0.163442
 C        -3.022961         0.851259        -0.794442
 O        -2.954392        -1.382964         0.032822
 C        -2.746416        -2.397777         1.106639
 C        -3.391004        -3.752870         0.643928
 O        -3.137812        -4.968558         0.745128
 H         1.842121         0.713012         1.073977
 H         2.382838         0.009357        -0.390640
 H         1.823074         1.663810        -0.593239
 H        -2.457686         0.201856         1.237978
 H        -4.056455         0.399192        -0.848191
 H        -2.962517         1.909046        -0.466630
 H        -2.481252         0.788662        -1.702741
 H        -1.729581        -2.556248         1.394615
 H        -3.259885        -2.125441         2.071927
 H        -4.395903        -3.446596         0.176884
