19
Iteration:  4582charge 0 multiplicity 1
 C         1.482762        -0.633571        -0.001856
 C         0.160391        -0.494975         0.693470
 C        -1.004486        -0.279644         1.014482
 C        -2.409189        -0.099098         1.238104
 C        -2.996319         1.334317         0.913886
 O        -2.983451        -1.016225         0.129244
 C        -2.519897        -2.433389         0.249037
 C        -2.880355        -3.100527        -1.059901
 O        -3.458165        -4.171405        -1.152246
 H         1.066087        -1.171959        -0.928138
 H         1.825080         0.352029        -0.271069
 H         2.176509        -1.322812         0.504244
 H        -2.713817        -0.457186         2.312362
 H        -2.275734         2.079347         1.488201
 H        -2.769328         1.542946        -0.161548
 H        -4.058132         1.227965         1.203606
 H        -1.436304        -2.488073         0.423277
 H        -3.061556        -2.943654         1.093625
 H        -2.555106        -2.536078        -1.978127
