19
Iteration:    35
 C         1.587094         0.219220        -0.156885
 C         0.201266        -0.122524        -0.192875
 C        -1.000312         0.012652         0.020865
 C        -2.425423        -0.032597         0.009696
 C        -3.276345         0.701078        -1.101455
 O        -2.694097        -1.454733        -0.088409
 C        -2.632667        -2.171378         1.120362
 C        -3.363535        -3.436210         0.786159
 O        -3.027666        -4.536199         1.221513
 H         1.751013         0.921946         0.697099
 H         2.275716        -0.619006        -0.066957
 H         1.854621         0.760428        -1.031605
 H        -2.723632         0.360504         0.971257
 H        -3.901929        -0.077538        -1.625071
 H        -3.939532         1.347704        -0.587486
 H        -2.698660         1.279084        -1.802614
 H        -1.647827        -2.461610         1.498223
 H        -3.182216        -1.616840         1.869561
 H        -4.164747        -3.312962         0.060690
