19
Iteration:  4717
 C         1.793178        -0.403004         0.474338
 C         0.346769        -0.252978         0.516052
 C        -0.880314        -0.299067         0.565618
 C        -2.261985        -0.279523         1.079432
 C        -2.789270         1.136632         1.096839
 O        -3.161662        -1.075403         0.265785
 C        -2.850316        -2.433015         0.113719
 C        -3.557682        -3.062269        -1.015611
 O        -3.279396        -4.210991        -1.277275
 H         2.418066         0.048165         1.283923
 H         2.092573        -1.364542         0.813600
 H         2.357589        -0.138129        -0.439571
 H        -2.375910        -0.706175         2.041837
 H        -1.985204         1.766313         1.441180
 H        -2.901297         1.532983         0.014038
 H        -3.756359         1.336366         1.609528
 H        -1.779177        -2.379250        -0.150947
 H        -3.077748        -3.047788         1.013395
 H        -4.416122        -2.552109        -1.539468
