19
Iteration:  1791charge 0 multiplicity 1
 C         1.527231         0.048626        -0.277945
 C         0.078585        -0.091908        -0.073031
 C        -1.102750         0.030660         0.197749
 C        -2.500314         0.101812         0.425469
 C        -3.174854         1.250510        -0.391776
 O        -3.062554        -1.279629         0.289888
 C        -2.410050        -2.427636         0.972445
 C        -3.020037        -3.621997         0.245574
 O        -2.998807        -4.810325         0.311432
 H         1.688498         0.473424        -1.260959
 H         1.836281         0.611118         0.659623
 H         2.046944        -0.940808        -0.237377
 H        -2.625305         0.194120         1.500978
 H        -4.167854         0.974513        -0.740243
 H        -3.041655         2.130410         0.183760
 H        -2.680042         1.425470        -1.392894
 H        -1.361603        -2.491249         0.845442
 H        -2.694345        -2.481507         2.052339
 H        -3.654539        -3.169832        -0.486373
