19
Iteration:  2689charge 0 multiplicity 1
 C         1.533306        -0.250226        -0.529982
 C         0.161545        -0.204001        -0.093030
 C        -1.006283        -0.083168         0.056191
 C        -2.414616        -0.075491         0.665919
 C        -3.097113         0.941874        -0.116474
 O        -3.406679        -1.217376         0.814137
 C        -2.790349        -2.376528         1.185127
 C        -2.781917        -3.184818        -0.065613
 O        -2.831257        -4.372126        -0.186753
 H         1.489591        -0.917070        -1.358930
 H         1.909876         0.628269        -1.102434
 H         2.257163        -0.777138         0.077314
 H        -2.294140         0.284051         1.685162
 H        -3.986601         1.377486         0.384956
 H        -2.483022         1.763556        -0.472670
 H        -3.597747         0.481918        -0.984564
 H        -1.767252        -2.169285         1.399072
 H        -3.108418        -3.057985         1.993360
 H        -2.734034        -2.606721        -0.954227
