19
Iteration:  3032charge 0 multiplicity 1
 C         1.016928        -0.855903        -0.867357
 C        -0.135368        -0.718549        -0.024224
 C        -1.197958        -0.542395         0.502754
 C        -2.544500        -0.001551         0.938071
 C        -2.836873         1.384988         0.437980
 O        -3.515296        -0.887744         0.320796
 C        -3.238370        -2.210388         0.709001
 C        -2.488092        -3.113524        -0.247164
 O        -1.753978        -4.037723         0.024824
 H         1.613214        -1.852591        -0.745207
 H         0.679899        -0.915131        -1.975004
 H         1.617148         0.009451        -0.660977
 H        -2.717309        -0.072274         2.055038
 H        -3.771655         1.611528         0.979803
 H        -2.099760         2.189261         0.714723
 H        -3.004650         1.410781        -0.629112
 H        -2.866527        -2.273217         1.753755
 H        -4.205445        -2.825603         0.781321
 H        -2.676073        -2.985269        -1.268723
