19
Iteration:   458
 C         1.532386         0.294091         0.007562
 C         0.036249         0.411212         0.049451
 C        -1.105522         0.039410         0.300136
 C        -2.553275        -0.236998         0.264012
 C        -3.173415         0.932409        -0.684136
 O        -2.843767        -1.485234        -0.416223
 C        -2.252622        -2.424208         0.387712
 C        -3.044575        -3.787110         0.444485
 O        -3.309527        -4.439400         1.409729
 H         1.671333        -0.267301        -0.918532
 H         2.158730         1.200108         0.031292
 H         1.825631        -0.276085         0.954540
 H        -3.080747        -0.423233         1.195482
 H        -4.259006         1.219189        -0.415314
 H        -2.446935         1.710325        -0.908190
 H        -3.151534         0.402594        -1.629198
 H        -1.357362        -2.894901        -0.161620
 H        -1.685929        -1.976240         1.300764
 H        -3.362017        -3.863017        -0.626699
