19
Iteration:  2326
 C         1.239399        -0.545974        -0.698337
 C        -0.175712        -0.675956        -0.433462
 C        -1.151315        -0.434188         0.197756
 C        -2.510669        -0.074835         0.806851
 C        -2.962179         1.338204         0.310979
 O        -3.437101        -0.923741         0.099650
 C        -3.510052        -2.253687         0.555730
 C        -2.393136        -3.256659         0.136243
 O        -1.802198        -4.161925         0.685832
 H         1.564496         0.356027        -1.114879
 H         1.858282        -0.733527         0.193968
 H         1.533118        -1.245111        -1.517648
 H        -2.597287        -0.199485         1.899080
 H        -4.057671         1.365550         0.323253
 H        -2.700578         1.987071         1.065312
 H        -2.566559         1.609374        -0.691974
 H        -3.780940        -2.426756         1.652850
 H        -4.418455        -2.595293        -0.010848
 H        -2.271500        -3.115782        -0.944078
