19
Iteration:   126charge 0 multiplicity 1
 C         1.649923         0.467201        -0.180110
 C         0.231827         0.093664        -0.119466
 C        -0.995129         0.020705        -0.029213
 C        -2.404798        -0.121174         0.029237
 C        -3.095621         0.623383        -1.140286
 O        -2.814384        -1.494277         0.049448
 C        -2.579480        -2.263668         1.225354
 C        -3.501081        -3.478334         0.973906
 O        -3.142596        -4.643150         0.878480
 H         1.874603         0.944340        -1.132886
 H         1.994553         1.117762         0.635583
 H         2.367470        -0.373741        -0.144745
 H        -2.818625         0.318394         0.933174
 H        -3.430404         1.616235        -0.832022
 H        -2.355470         0.768148        -2.021429
 H        -3.971047         0.050494        -1.563190
 H        -1.539325        -2.594837         1.260863
 H        -2.756850        -1.683752         2.110029
 H        -4.577097        -3.300002         0.734857
