19
Iteration:  4563charge 0 multiplicity 1
 C         1.447254        -0.611418        -0.004123
 C         0.127201        -0.567319         0.606890
 C        -0.947438        -0.135707         0.971636
 C        -2.417107        -0.209794         1.131350
 C        -2.925295         1.226443         0.932019
 O        -2.995022        -1.034376         0.171913
 C        -2.709855        -2.351048         0.269213
 C        -2.829259        -3.071334        -1.068498
 O        -3.395298        -4.143372        -1.084000
 H         1.562435        -0.650060        -1.088622
 H         1.939845         0.228294         0.492677
 H         2.002501        -1.492538         0.429026
 H        -2.759193        -0.583000         2.139046
 H        -2.346644         1.775094         1.703320
 H        -2.672883         1.438507        -0.077152
 H        -4.016170         1.391933         1.133169
 H        -1.658147        -2.572453         0.439414
 H        -3.156800        -2.749261         1.196871
 H        -2.469965        -2.502486        -1.954580
