19
Iteration:  1037charge 0 multiplicity 1
 C         1.649909         0.086910        -0.127869
 C         0.277839        -0.120611         0.061728
 C        -0.973035        -0.167362         0.046899
 C        -2.488501        -0.051134         0.154478
 C        -3.311492         1.010175        -0.582481
 O        -3.142061        -1.313146         0.063065
 C        -3.154395        -2.284717         1.161128
 C        -3.028162        -3.481460         0.311645
 O        -2.445383        -4.547758         0.573768
 H         2.044764        -0.927591        -0.355166
 H         1.905441         0.589167        -1.095729
 H         2.151805         0.645227         0.680822
 H        -2.638806         0.250594         1.219381
 H        -4.307016         0.589304        -0.468285
 H        -3.173866         1.925336        -0.021863
 H        -3.086727         1.339269        -1.572185
 H        -2.319039        -2.190661         1.927780
 H        -4.082863        -2.182361         1.743283
 H        -3.597902        -3.394234        -0.628098
