19
Iteration:  1498charge 0 multiplicity 1
 C         1.703348         0.742639        -0.236477
 C         0.359579         0.300914         0.164417
 C        -0.847238        -0.011520         0.096775
 C        -2.252031        -0.180802         0.295454
 C        -3.232910         0.914313        -0.031505
 O        -2.863369        -1.434051        -0.255128
 C        -2.524830        -2.481875         0.650298
 C        -3.310008        -3.780990         0.202526
 O        -3.605733        -4.843049         0.816228
 H         1.502803         1.185203        -1.168170
 H         2.187040         1.434806         0.500612
 H         2.304073        -0.139150        -0.369973
 H        -2.360404        -0.276701         1.391078
 H        -4.201506         0.412690        -0.349891
 H        -3.208545         1.698314         0.759136
 H        -2.785020         1.683856        -0.884665
 H        -1.434671        -2.800422         0.529666
 H        -2.779774        -2.247553         1.703951
 H        -3.340772        -3.788233        -0.861450
