19
Iteration:   729
 C         1.619177         0.068047        -0.195535
 C         0.136277         0.302312        -0.009812
 C        -1.013811        -0.002538         0.294827
 C        -2.603959         0.052092         0.254854
 C        -3.233350         0.949572        -0.786268
 O        -3.165883        -1.315463         0.196999
 C        -2.485535        -2.413477         0.923992
 C        -2.913999        -3.630829         0.207303
 O        -3.002980        -4.711018         0.817365
 H         1.693538        -0.555245        -1.039010
 H         2.189055         0.938601        -0.321217
 H         2.083674        -0.493025         0.654012
 H        -2.928897         0.445935         1.225084
 H        -4.316426         0.772595        -0.682501
 H        -2.936182         1.991887        -0.543987
 H        -2.868302         0.549562        -1.732706
 H        -1.324193        -2.231878         0.842696
 H        -2.820177        -2.623765         1.937272
 H        -2.994155        -3.494950        -0.896581
