19
Iteration:  1372charge 0 multiplicity 1
 C         1.625284         0.384739        -0.386662
 C         0.309326         0.294350         0.180388
 C        -0.856120         0.168518         0.459523
 C        -2.356339        -0.043045         0.508823
 C        -3.261282         0.751623        -0.403357
 O        -2.809982        -1.328076         0.003011
 C        -2.701966        -2.452987         0.768666
 C        -3.272955        -3.681697         0.161167
 O        -3.212687        -4.812443         0.522898
 H         2.511499         0.374912         0.330774
 H         1.833543        -0.363471        -1.136918
 H         1.662560         1.393032        -0.929034
 H        -2.694592         0.109932         1.564728
 H        -3.118239         1.869079        -0.609771
 H        -3.166445         0.183015        -1.366135
 H        -4.201700         0.642161         0.067936
 H        -1.832950        -2.630759         1.430088
 H        -3.494105        -2.287050         1.558756
 H        -3.817606        -3.328733        -0.853930
