19
Iteration:   904charge 0 multiplicity 1
 C         1.428726        -0.170242        -0.277204
 C         0.004710        -0.211980         0.081924
 C        -1.148202         0.050740         0.456220
 C        -2.601618         0.044120         0.370005
 C        -3.337774         0.961630        -0.664242
 O        -2.911573        -1.252759        -0.116311
 C        -2.775259        -2.215150         0.923820
 C        -2.516345        -3.474880         0.233428
 O        -2.829017        -4.546977         0.800761
 H         1.758330         0.883610        -0.228755
 H         2.157109        -0.759233         0.261979
 H         1.527801        -0.378871        -1.419325
 H        -2.936605         0.271900         1.416914
 H        -4.035218         1.552690        -0.138740
 H        -2.654284         1.658358        -1.157402
 H        -3.841076         0.347597        -1.459373
 H        -1.769492        -1.961054         1.495933
 H        -3.646645        -2.417678         1.608049
 H        -2.211201        -3.434088        -0.878002
