19
Iteration:  2393charge 0 multiplicity 1
 C         1.365552        -0.311672        -0.725150
 C         0.043231        -0.095462        -0.200489
 C        -1.090134        -0.466466         0.166192
 C        -2.467439        -0.189516         0.679917
 C        -2.768787         1.224881         0.241049
 O        -3.558420        -1.000459         0.134889
 C        -3.450021        -2.296590         0.745106
 C        -2.555504        -3.331055         0.082771
 O        -2.189859        -4.431813         0.526511
 H         1.253102        -0.838917        -1.631726
 H         2.028480         0.559977        -0.739185
 H         1.906304        -1.098153        -0.093407
 H        -2.435122        -0.238146         1.775248
 H        -3.413826         1.783508         0.909593
 H        -1.900264         1.833330         0.182833
 H        -3.313823         1.185345        -0.743462
 H        -3.197005        -2.038713         1.837876
 H        -4.456442        -2.811318         0.915101
 H        -2.270651        -3.042955        -0.942330
