19
Iteration:   408
 C         1.539844         0.220868         0.058754
 C         0.119653        -0.107577         0.261461
 C        -1.105213         0.083667         0.081928
 C        -2.575815        -0.036383         0.178410
 C        -3.516489         0.881417        -0.725613
 O        -2.762954        -1.453310        -0.353324
 C        -2.050067        -2.536938         0.326857
 C        -3.102910        -3.626631         0.416453
 O        -3.211712        -4.231709         1.471059
 H         1.603875         1.007197        -0.783840
 H         1.872183         0.759460         0.975786
 H         2.205588        -0.635045        -0.114740
 H        -3.089250        -0.069074         1.161022
 H        -4.224864         0.269961        -1.281074
 H        -4.086799         1.492011         0.033664
 H        -2.862008         1.528267        -1.336678
 H        -1.352846        -2.868922        -0.447309
 H        -1.564250        -2.338694         1.269347
 H        -3.473140        -3.941983        -0.588295
