19
Iteration:  4328charge 0 multiplicity 1
 C         1.543855        -0.626011        -0.024325
 C         0.141029        -0.484856         0.370272
 C        -0.958003        -0.485746         0.878363
 C        -2.364003        -0.175875         1.205700
 C        -2.755021         1.288818         0.825345
 O        -3.233621        -0.909409         0.285045
 C        -3.392121        -2.321207         0.435485
 C        -2.858815        -3.051895        -0.887349
 O        -2.756240        -4.224382        -1.147550
 H         1.647970        -1.197571        -0.950171
 H         1.990398         0.354176        -0.281008
 H         2.156501        -1.145503         0.676615
 H        -2.725588        -0.375843         2.215173
 H        -2.303037         2.032574         1.450846
 H        -2.387580         1.471698        -0.213434
 H        -3.828632         1.512057         0.929350
 H        -2.788599        -2.541411         1.374084
 H        -4.504085        -2.623239         0.479345
 H        -2.558653        -2.272966        -1.637678
