19
Iteration:   742
 C         1.591758         0.045994        -0.156939
 C         0.109645         0.129877         0.079095
 C        -1.098577         0.042210         0.103559
 C        -2.542027        -0.029726         0.300711
 C        -3.250299         0.891510        -0.748198
 O        -3.208697        -1.294558         0.229877
 C        -2.441046        -2.299230         0.894455
 C        -2.775143        -3.639835         0.217638
 O        -3.041844        -4.647235         0.779148
 H         1.806638        -0.737014        -0.873023
 H         2.017944         0.937764        -0.589138
 H         2.066414        -0.233601         0.808354
 H        -2.731167         0.432272         1.304217
 H        -4.317700         0.734913        -0.807417
 H        -3.192683         1.938593        -0.369267
 H        -2.860515         0.985730        -1.831645
 H        -1.269455        -2.127214         0.751464
 H        -2.583562        -2.232754         2.003471
 H        -2.928092        -3.546159        -0.880664
