19
Iteration:    31charge 0 multiplicity 1
 C         1.574875         0.200745        -0.134465
 C         0.184963        -0.131844        -0.202304
 C        -0.989235         0.033884         0.010867
 C        -2.443461        -0.034086         0.044274
 C        -3.242707         0.661897        -1.085434
 O        -2.725761        -1.458648        -0.114685
 C        -2.651629        -2.196926         1.086987
 C        -3.299434        -3.394159         0.807692
 O        -3.044729        -4.518601         1.231746
 H         1.759918         0.867470         0.685318
 H         2.373326        -0.591524        -0.211168
 H         1.875025         0.861877        -1.059867
 H        -2.794868         0.384685         1.003392
 H        -3.750670        -0.089379        -1.618995
 H        -3.983059         1.327701        -0.547131
 H        -2.720137         1.379749        -1.768380
 H        -1.585688        -2.390622         1.397844
 H        -3.231705        -1.663920         1.883114
 H        -4.061777        -3.355337        -0.023865
