19
Iteration:  1545charge 0 multiplicity 1
 C         1.536025         0.739257        -0.132727
 C         0.188721         0.177924        -0.175652
 C        -0.900392        -0.141456         0.254776
 C        -2.339684        -0.265128         0.440611
 C        -3.110173         0.993058        -0.047523
 O        -2.813509        -1.448458        -0.188824
 C        -2.334537        -2.651241         0.389058
 C        -3.289588        -3.744634         0.096867
 O        -3.553801        -4.507389         0.966230
 H         2.234100         0.535293        -0.985458
 H         1.476804         1.808732        -0.017100
 H         2.018386         0.410854         0.847661
 H        -2.418460        -0.451210         1.525620
 H        -3.448097         0.654930        -1.038327
 H        -3.969323         1.288860         0.671779
 H        -2.504700         1.938481        -0.042424
 H        -1.321237        -2.917995        -0.050085
 H        -2.290495        -2.704414         1.528139
 H        -3.775282        -3.794453        -0.856593
