19
Iteration:  2419charge 0 multiplicity 1
 C         1.419677        -0.263401        -0.607982
 C        -0.049000        -0.327615        -0.460455
 C        -1.082459        -0.284189         0.136386
 C        -2.470874        -0.009588         0.730710
 C        -2.861375         1.395284         0.210729
 O        -3.322060        -1.099587         0.232835
 C        -3.427244        -2.427104         0.836671
 C        -2.598690        -3.404764         0.029934
 O        -2.315420        -4.517787         0.470947
 H         1.939094        -1.132773        -1.187315
 H         1.685544         0.759967        -0.979375
 H         1.888335        -0.330597         0.376012
 H        -2.439427         0.092483         1.849499
 H        -3.685067         1.896873         0.767729
 H        -1.968903         2.110255         0.430112
 H        -3.115378         1.397113        -0.833820
 H        -3.356584        -2.427666         1.939866
 H        -4.484334        -2.801583         0.697432
 H        -2.271246        -3.053853        -0.911048
