19
Iteration:  3783charge 0 multiplicity 1
 C         1.271149        -0.791748        -0.516286
 C         0.052313        -0.711336         0.130624
 C        -1.111979        -0.466359         0.416849
 C        -2.462633        -0.191300         1.004644
 C        -2.709849         1.272211         0.724571
 O        -3.609191        -0.962152         0.547412
 C        -3.517101        -2.351225         0.418556
 C        -2.610666        -2.898082        -0.615712
 O        -2.012797        -3.910899        -0.354691
 H         1.301726        -1.545025        -1.324566
 H         1.654123         0.205643        -0.827583
 H         2.226076        -1.143711         0.077641
 H        -2.548388        -0.361163         2.102734
 H        -1.747751         1.833280         0.731536
 H        -3.078520         1.519585        -0.304933
 H        -3.295248         1.663421         1.531155
 H        -3.391681        -2.868230         1.379892
 H        -4.558778        -2.636632         0.199275
 H        -2.391406        -2.242825        -1.493161
