19
Iteration:  1164charge 0 multiplicity 1
 C         1.529544        -0.299879        -0.015234
 C         0.105476         0.072609         0.301756
 C        -1.086630         0.267790         0.352293
 C        -2.634882         0.164127         0.336681
 C        -3.556700         0.967771        -0.696255
 O        -3.019942        -1.194051         0.081903
 C        -2.188997        -2.397080         0.437307
 C        -3.074923        -3.558909         0.395221
 O        -2.733446        -4.694782         0.606113
 H         2.215476         0.521574         0.047108
 H         1.856592        -1.082603         0.587964
 H         1.590511        -0.656166        -1.065513
 H        -2.922558         0.386139         1.401879
 H        -4.518065         1.211522        -0.270952
 H        -3.135870         1.932977        -1.000082
 H        -3.589224         0.203457        -1.557465
 H        -1.512158        -2.399666        -0.366941
 H        -1.729318        -2.402429         1.422101
 H        -4.164077        -3.304129         0.391754
