19
Iteration:  2545charge 0 multiplicity 1
 C         1.294416        -0.488854        -0.611721
 C        -0.010399        -0.263067        -0.193051
 C        -1.007795         0.181058         0.424113
 C        -2.411036         0.174823         0.718153
 C        -3.356477         1.206926        -0.035110
 O        -2.990988        -1.102917         0.427338
 C        -2.721998        -2.419511         1.014596
 C        -2.424930        -3.485662        -0.075979
 O        -2.983354        -4.566042         0.067122
 H         2.048573        -0.014755        -0.060295
 H         1.630262        -1.540155        -0.518544
 H         1.438114        -0.149956        -1.703581
 H        -2.571842         0.348201         1.816213
 H        -4.209501         1.444356         0.562394
 H        -2.838286         2.170305        -0.294011
 H        -3.720001         0.842978        -0.985531
 H        -1.982803        -2.446764         1.820026
 H        -3.669918        -2.731089         1.408490
 H        -1.730154        -3.300074        -0.922880
