19
Iteration:   146
 C         1.546180         0.526551        -0.250352
 C         0.253305        -0.111629         0.077701
 C        -0.959150         0.062835        -0.046933
 C        -2.444485        -0.058770         0.093532
 C        -3.030695         0.600053        -1.159410
 O        -2.893667        -1.507464         0.021697
 C        -2.448890        -2.250883         1.174568
 C        -3.363185        -3.446969         0.887126
 O        -3.231591        -4.662398         0.904176
 H         1.597286         0.665706        -1.354172
 H         1.496038         1.483076         0.243779
 H         2.401105         0.077310         0.152524
 H        -2.806466         0.276149         1.029117
 H        -2.791178         1.659977        -1.115477
 H        -2.641793         0.102552        -2.047236
 H        -4.089588         0.538798        -1.155547
 H        -1.364237        -2.420238         1.256173
 H        -2.847825        -1.744149         2.062007
 H        -4.442888        -3.015942         0.741363
