19
Iteration:  4638
 C         1.501675        -0.667844         0.151974
 C         0.174643        -0.334693         0.607251
 C        -0.944319        -0.147773         0.976546
 C        -2.313118        -0.222986         1.208591
 C        -2.968272         1.179321         0.842003
 O        -2.939712        -1.068404         0.315589
 C        -2.486076        -2.425857         0.167699
 C        -3.181569        -2.980314        -1.125753
 O        -3.452422        -4.158917        -1.193408
 H         1.816305        -1.689894         0.503111
 H         1.573482        -0.547437        -0.942721
 H         2.237071         0.060785         0.565584
 H        -2.542864        -0.554550         2.266121
 H        -2.770413         1.925744         1.680416
 H        -2.582694         1.323540        -0.151536
 H        -4.080935         0.991488         0.761363
 H        -1.384586        -2.603243         0.346050
 H        -2.996501        -2.974469         1.021842
 H        -3.261514        -2.291330        -2.059775
