19
Iteration:   917charge 0 multiplicity 1
 C         1.435730        -0.098288        -0.373080
 C         0.056724        -0.170885         0.184316
 C        -1.149209        -0.058445         0.451020
 C        -2.669964        -0.012713         0.357647
 C        -3.199742         1.070601        -0.641023
 O        -3.037068        -1.318873        -0.085308
 C        -2.769780        -2.218716         0.897583
 C        -2.552548        -3.516936         0.181599
 O        -2.761869        -4.486251         0.840736
 H         1.645809         0.953914        -0.570095
 H         2.168008        -0.480474         0.359173
 H         1.514169        -0.776488        -1.275990
 H        -3.254100         0.087906         1.302151
 H        -4.085411         1.660060        -0.270309
 H        -2.326883         1.592856        -1.060223
 H        -3.590269         0.463937        -1.550766
 H        -1.985082        -1.991664         1.690138
 H        -3.729123        -2.314078         1.445427
 H        -2.237776        -3.470900        -0.909733
