19
Iteration:  1621
 C         1.674670         0.525850        -0.236430
 C         0.333007         0.232637         0.238650
 C        -0.875729         0.160085         0.174060
 C        -2.357381        -0.129013         0.521205
 C        -3.346435         0.887385        -0.172690
 O        -2.857264        -1.414450         0.020826
 C        -2.206280        -2.716122         0.020456
 C        -3.379902        -3.744933         0.179619
 O        -3.527181        -4.562272         1.010920
 H         2.394792        -0.196646         0.165769
 H         1.639562         0.467833        -1.288394
 H         1.913554         1.549004         0.104723
 H        -2.455907        -0.005112         1.608584
 H        -2.804594         1.801108        -0.549813
 H        -3.993981         0.525499        -1.069124
 H        -4.074613         1.076623         0.623109
 H        -1.831210        -2.997651        -0.959511
 H        -1.472432        -2.822631         0.854348
 H        -4.132731        -3.585810        -0.745678
