19
Iteration:  4823charge 0 multiplicity 1
 C         1.834002        -0.030179         0.415032
 C         0.448789        -0.231911         0.622266
 C        -0.721160        -0.411512         0.990796
 C        -2.220570        -0.358761         1.116862
 C        -2.802917         1.090885         1.075468
 O        -2.865414        -1.099120         0.067941
 C        -2.771792        -2.553022         0.038928
 C        -3.764046        -3.102599        -0.957632
 O        -3.662060        -4.223448        -1.426028
 H         1.875106        -0.276406        -0.662566
 H         2.367750         0.949772         0.614191
 H         2.442277        -0.781715         0.942903
 H        -2.584181        -0.735749         2.071891
 H        -2.756966         1.574027         2.046068
 H        -2.423925         1.777870         0.345840
 H        -3.888348         0.968578         0.914612
 H        -1.787936        -2.972882        -0.048292
 H        -3.183944        -3.043524         0.957113
 H        -4.517861        -2.343743        -1.209011
