19
Iteration:  1968charge 0 multiplicity 1
 C         1.430930        -0.747526        -0.223306
 C         0.038462        -0.159524        -0.178590
 C        -1.128375        -0.126595         0.022181
 C        -2.509675         0.151949         0.470980
 C        -3.406004         0.954384        -0.425124
 O        -3.377590        -1.031079         0.841181
 C        -2.887210        -2.342898         1.160667
 C        -2.628296        -3.175975        -0.103362
 O        -2.204305        -4.317698         0.009501
 H         1.912658        -0.557147         0.686009
 H         1.204449        -1.828501        -0.292024
 H         1.984132        -0.261817        -1.055878
 H        -2.259338         0.530378         1.463405
 H        -4.391205         1.102185         0.067990
 H        -2.996107         2.036057        -0.320717
 H        -3.472145         0.655039        -1.445077
 H        -1.970174        -2.304546         1.768479
 H        -3.597560        -2.995636         1.777012
 H        -2.864274        -2.642078        -1.014125
