19
Iteration:  2312charge 0 multiplicity 1
 C         1.216130        -0.723571        -0.738172
 C        -0.229490        -0.469904        -0.397872
 C        -1.208782        -0.415637         0.267292
 C        -2.518358        -0.085137         0.647019
 C        -2.901215         1.356950         0.399692
 O        -3.502404        -0.973860         0.080177
 C        -3.464172        -2.338852         0.565760
 C        -2.312442        -3.253517         0.031490
 O        -1.817254        -4.055379         0.752534
 H         1.665408         0.285659        -0.785591
 H         1.626459        -1.187312         0.135160
 H         1.402823        -1.312710        -1.583916
 H        -2.561845        -0.210791         1.739025
 H        -3.974511         1.347110         0.243335
 H        -2.560900         2.097900         1.186004
 H        -2.424974         1.684342        -0.478614
 H        -3.442578        -2.311187         1.661474
 H        -4.359725        -2.878567         0.173511
 H        -2.071899        -3.091417        -0.986861
