19
Iteration:  1422charge 0 multiplicity 1
 C         1.599748         0.509995        -0.295112
 C         0.226409         0.282298        -0.117235
 C        -0.935076         0.170752         0.304253
 C        -2.387400        -0.126926         0.423612
 C        -3.207300         1.007979        -0.376872
 O        -2.533882        -1.509681         0.052998
 C        -2.668142        -2.538895         1.109640
 C        -3.178249        -3.687557         0.153238
 O        -3.467575        -4.852125         0.432658
 H         1.871200         1.390355         0.254402
 H         2.153429        -0.361527         0.176167
 H         1.909420         0.581641        -1.332887
 H        -2.806286        -0.002098         1.421745
 H        -3.832580         1.497542         0.358250
 H        -2.506607         1.575942        -0.973086
 H        -4.125900         0.618732        -0.970139
 H        -1.734321        -2.770972         1.668377
 H        -3.443587        -2.251321         1.879921
 H        -3.711004        -3.140880        -0.750296
