19
Iteration:  4840
 C         1.800012        -0.114663         0.358469
 C         0.381691        -0.157854         0.660966
 C        -0.795991        -0.194221         1.035698
 C        -2.204330        -0.380450         1.185696
 C        -2.778894         1.014148         1.043710
 O        -2.762526        -1.184061         0.085169
 C        -2.732698        -2.562330         0.075395
 C        -3.758305        -3.074455        -1.047252
 O        -3.771543        -4.224775        -1.428748
 H         2.326821        -0.493423        -0.522620
 H         2.033687         0.950376         0.355359
 H         2.404368        -0.373449         1.271400
 H        -2.346775        -0.940646         2.167385
 H        -2.618568         1.635783         1.989192
 H        -2.114239         1.523010         0.328234
 H        -3.844596         0.988472         0.768983
 H        -1.747553        -2.946244        -0.366193
 H        -2.835167        -3.050983         1.081211
 H        -4.529107        -2.323937        -1.461133
