19
Iteration:  1143charge 0 multiplicity 1
 C         1.384292        -0.204009        -0.071396
 C         0.020381        -0.108093         0.465974
 C        -1.159735         0.160886         0.165043
 C        -2.550245         0.134817         0.249172
 C        -3.414407         1.022514        -0.643629
 O        -3.031172        -1.240083         0.038974
 C        -2.219709        -2.263194         0.556407
 C        -3.093929        -3.578062         0.485517
 O        -2.650323        -4.679014         0.551016
 H         2.092283         0.421982         0.475769
 H         1.737753        -1.167215         0.128396
 H         1.510381        -0.027390        -1.169013
 H        -2.622741         0.284202         1.370139
 H        -4.173079         1.508614        -0.042126
 H        -2.761775         1.813827        -0.998915
 H        -3.889478         0.322022        -1.435697
 H        -1.324810        -2.453763        -0.011252
 H        -2.004444        -1.835764         1.541523
 H        -4.109680        -3.360963         0.151195
