19
Iteration:  3353charge 0 multiplicity 1
 C         1.366994        -0.907145        -0.553994
 C         0.023571        -0.666809        -0.030663
 C        -1.068301        -0.447948         0.475093
 C        -2.395350         0.026468         0.959403
 C        -3.121672         1.284146         0.312364
 O        -3.484119        -0.958688         0.589448
 C        -3.308211        -2.360810         0.818008
 C        -2.703492        -2.990830        -0.408693
 O        -1.928527        -3.946427        -0.384227
 H         1.925321        -1.194872         0.366513
 H         1.352340        -1.749846        -1.185985
 H         1.623589         0.104826        -1.004609
 H        -2.442714         0.153712         2.058757
 H        -2.645936         2.003042        -0.386380
 H        -4.052866         0.922823        -0.244717
 H        -3.547226         1.958813         1.017141
 H        -2.684916        -2.721219         1.679378
 H        -4.342302        -2.726928         0.915716
 H        -2.935638        -2.709660        -1.440780
