19
Iteration:  3798charge 0 multiplicity 1
 C         1.313025        -0.851464        -0.558563
 C        -0.017324        -0.711518         0.137993
 C        -1.176427        -0.550010         0.492206
 C        -2.410865        -0.135134         0.990921
 C        -2.815292         1.342752         0.783503
 O        -3.533420        -0.878483         0.514137
 C        -3.532032        -2.312481         0.458983
 C        -2.529331        -2.903020        -0.600046
 O        -1.989891        -3.990835        -0.412923
 H         1.174996        -1.800806        -1.083720
 H         1.481802        -0.059415        -1.353581
 H         2.109348        -0.974362         0.178210
 H        -2.208913        -0.239767         2.126260
 H        -2.056077         1.995840         1.202190
 H        -3.006093         1.488016        -0.261941
 H        -3.843923         1.516649         1.198525
 H        -3.133377        -2.805140         1.357479
 H        -4.547571        -2.596281         0.044131
 H        -2.419276        -2.361763        -1.572143
