19
Iteration:  2849charge 0 multiplicity 1
 C         1.251695        -0.786684        -0.720065
 C        -0.041809        -0.403304        -0.162628
 C        -1.042903        -0.064203         0.456851
 C        -2.384182         0.170969         0.851301
 C        -3.250358         1.344482         0.255166
 O        -3.277466        -1.000161         0.551561
 C        -2.930657        -2.311132         0.860299
 C        -2.652983        -3.327133        -0.343921
 O        -2.294844        -4.446470        -0.018192
 H         1.904210         0.133532        -0.576014
 H         1.664691        -1.679607        -0.225415
 H         1.099791        -0.959028        -1.862140
 H        -2.413232         0.380372         1.956208
 H        -4.126230         1.356830         0.925450
 H        -2.674164         2.347867         0.195596
 H        -3.636442         1.090689        -0.708797
 H        -2.145728        -2.336276         1.604091
 H        -3.810613        -2.887532         1.155778
 H        -2.928365        -2.983992        -1.435807
