19
Iteration:  2604charge 0 multiplicity 1
 C         1.326770        -0.467066        -0.590443
 C         0.051790        -0.183017        -0.052713
 C        -1.115527        -0.107792         0.283861
 C        -2.469567         0.056940         0.621427
 C        -3.247842         1.174672        -0.137883
 O        -3.187187        -1.212158         0.604385
 C        -2.475596        -2.411385         1.085581
 C        -2.490612        -3.277681        -0.094468
 O        -3.017807        -4.400122        -0.029639
 H         1.759475         0.389074        -1.240464
 H         1.912961        -0.743873         0.341883
 H         1.293109        -1.429740        -1.097320
 H        -2.481333         0.429910         1.693800
 H        -4.308126         0.957825         0.200626
 H        -2.954140         2.102996         0.355028
 H        -3.128145         1.188036        -1.261814
 H        -1.490866        -2.019163         1.461911
 H        -3.097975        -2.876477         1.907637
 H        -2.042657        -2.832891        -1.016282
