19
Iteration:  2791charge 0 multiplicity 1
 C         1.282189        -0.416372        -0.684077
 C        -0.003360        -0.276333        -0.114245
 C        -1.100855        -0.390918         0.378131
 C        -2.451078        -0.029051         0.685963
 C        -3.025878         1.242160        -0.009444
 O        -3.350558        -1.107206         0.686583
 C        -2.791812        -2.339887         1.102739
 C        -2.756219        -3.213890        -0.153628
 O        -2.500639        -4.387603        -0.166560
 H         2.054717        -0.771166         0.114365
 H         1.287427        -1.342813        -1.341176
 H         1.805382         0.254681        -1.367405
 H        -2.284748         0.388903         1.709002
 H        -4.099794         1.383099         0.276898
 H        -2.581079         2.109764         0.635340
 H        -2.858175         1.567323        -1.106043
 H        -1.829032        -2.232845         1.582881
 H        -3.512184        -2.928693         1.786845
 H        -3.054779        -2.637196        -1.150437
