19
Iteration:  3660charge 0 multiplicity 1
 C         1.384923        -0.877656        -0.416241
 C         0.014095        -0.549202        -0.065916
 C        -1.114187        -0.326305         0.298868
 C        -2.424763        -0.088757         0.958859
 C        -2.932967         1.368062         0.803763
 O        -3.484733        -0.935421         0.408182
 C        -3.402280        -2.324413         0.608947
 C        -2.588934        -3.031744        -0.531460
 O        -2.135241        -4.158231        -0.349750
 H         2.124956        -0.027173        -0.208229
 H         1.748586        -1.865584        -0.122544
 H         1.498073        -0.806835        -1.547875
 H        -2.242876        -0.545850         1.973831
 H        -2.497595         1.938776         1.628482
 H        -2.612376         1.779330        -0.140745
 H        -4.048479         1.360517         0.849720
 H        -3.259653        -2.538626         1.654502
 H        -4.451834        -2.543823         0.503844
 H        -2.414402        -2.492733        -1.502412
