19
Iteration:  4106charge 0 multiplicity 1
 C         1.212946        -1.171286        -0.350640
 C        -0.073380        -0.889091         0.303861
 C        -1.137233        -0.530184         0.789656
 C        -2.533652         0.018926         1.135830
 C        -2.762047         1.463973         0.689304
 O        -3.583748        -0.968930         0.602067
 C        -3.237736        -2.352571         0.513868
 C        -2.644941        -2.789594        -0.825081
 O        -1.962813        -3.797293        -0.951234
 H         1.548583        -2.233320        -0.220968
 H         1.337073        -1.093959        -1.482273
 H         2.091529        -0.655883         0.098566
 H        -2.497575         0.183811         2.247324
 H        -1.753359         1.998264         0.695389
 H        -3.176991         1.610806        -0.328165
 H        -3.646531         1.757878         1.212588
 H        -2.583204        -2.643073         1.319736
 H        -4.230245        -2.823895         0.556917
 H        -3.076420        -2.037522        -1.689959
