19
Iteration:   804charge 0 multiplicity 1
 C         1.499923        -0.204910         0.081950
 C         0.068195        -0.173295        -0.236178
 C        -1.091478         0.147636        -0.083822
 C        -2.598017         0.053646         0.268582
 C        -3.566223         0.932513        -0.571165
 O        -3.054041        -1.311228         0.127794
 C        -2.329028        -2.245018         1.003131
 C        -2.508857        -3.515618         0.245260
 O        -3.072721        -4.491941         0.708551
 H         1.644877        -0.978420         0.842571
 H         2.242767        -0.281873        -0.722009
 H         1.762435         0.802766         0.539231
 H        -2.639520         0.454345         1.302116
 H        -4.503941         0.490607        -0.228645
 H        -3.398200         1.974125        -0.214853
 H        -3.451208         0.895357        -1.607070
 H        -1.304397        -2.064835         0.919440
 H        -2.735411        -2.218365         1.999242
 H        -2.146888        -3.383682        -0.780434
