19
Iteration:  3052charge 0 multiplicity 1
 C         1.101336        -0.844021        -0.879038
 C        -0.229094        -0.834781        -0.154373
 C        -1.134620        -0.404357         0.604987
 C        -2.469493         0.000851         0.911107
 C        -2.854392         1.400163         0.392725
 O        -3.503671        -0.984767         0.411562
 C        -3.389501        -2.367197         0.719511
 C        -2.503683        -3.053125        -0.311982
 O        -1.751578        -3.915017         0.065305
 H         1.849822        -1.498926        -0.330325
 H         0.898412        -1.317365        -1.921312
 H         1.364195         0.194615        -0.900123
 H        -2.503747        -0.073142         2.023413
 H        -3.870031         1.705009         0.589240
 H        -2.192313         2.066911         1.045541
 H        -2.484969         1.508731        -0.577069
 H        -2.943239        -2.654520         1.691456
 H        -4.407253        -2.700276         0.762402
 H        -2.706708        -2.803817        -1.481402
