19
Iteration:   198charge 0 multiplicity 1
 C         1.653903         0.501958        -0.235703
 C         0.235825         0.347826        -0.030186
 C        -0.942828         0.061975         0.156369
 C        -2.414181        -0.116021         0.122732
 C        -2.885917         0.635779        -1.070778
 O        -3.138514        -1.380956         0.006785
 C        -2.536414        -2.462958         0.704621
 C        -3.474374        -3.594567         0.877711
 O        -3.130100        -4.738888         1.141017
 H         1.990269        -0.512569        -0.662500
 H         1.930064         1.362673        -0.888041
 H         2.194525         0.669202         0.687374
 H        -2.915014         0.231205         1.117516
 H        -2.054437         0.663175        -1.824989
 H        -3.813277         0.306328        -1.495660
 H        -3.026793         1.669990        -0.800243
 H        -1.499838        -2.749497         0.436073
 H        -2.471696        -2.090033         1.781959
 H        -4.536043        -3.350392         0.934776
