19
Iteration:   535
 C         1.656393         0.632462         0.016841
 C         0.242097         0.241736         0.005810
 C        -0.896786        -0.180022         0.067366
 C        -2.349608        -0.084695         0.151804
 C        -3.330174         0.706323        -0.819919
 O        -2.909526        -1.431351        -0.030190
 C        -2.391378        -2.426401         0.796613
 C        -3.351663        -3.623697         0.450399
 O        -3.248266        -4.684041         0.987318
 H         2.256334        -0.020716         0.721572
 H         2.117530         0.621492        -0.999958
 H         1.647168         1.752023         0.378754
 H        -2.615560         0.299666         1.140716
 H        -4.259665         0.990866        -0.227536
 H        -2.859836         1.706652        -1.067725
 H        -3.564082         0.120364        -1.715184
 H        -1.333934        -2.580955         0.816754
 H        -2.644400        -2.193109         1.916538
 H        -4.024144        -3.276552        -0.368724
