19
Iteration:   253
 C         1.627313         0.452991        -0.025930
 C         0.198421         0.087873        -0.016470
 C        -1.002591        -0.037441         0.013670
 C        -2.469476        -0.087419         0.057374
 C        -3.102827         0.911105        -0.986127
 O        -3.032959        -1.432223        -0.113653
 C        -2.352854        -2.488794         0.552030
 C        -3.359978        -3.575665         0.812395
 O        -3.133696        -4.651165         1.313925
 H         2.280593        -0.099214         0.744186
 H         2.092319         0.255029        -1.017439
 H         1.738290         1.481213         0.273916
 H        -2.900767         0.125296         1.045953
 H        -4.100223         0.481261        -1.249429
 H        -3.334794         1.840510        -0.462171
 H        -2.504232         1.167073        -1.834694
 H        -1.419531        -2.880610         0.125728
 H        -2.045027        -2.144699         1.553139
 H        -4.459463        -3.277715         0.678229
