19
Iteration:  3670
 C         1.418079        -0.827103        -0.430189
 C         0.037795        -0.582761         0.000776
 C        -1.177010        -0.440289         0.151886
 C        -2.487616        -0.120742         0.925537
 C        -2.882908         1.413186         0.844997
 O        -3.461631        -0.906974         0.471264
 C        -3.460292        -2.299110         0.576433
 C        -2.576097        -3.045772        -0.496255
 O        -2.104687        -4.142740        -0.363439
 H         2.014597         0.114485        -0.105079
 H         1.836949        -1.643886         0.187478
 H         1.351115        -1.063514        -1.526243
 H        -2.277300        -0.178548         2.048384
 H        -2.325898         2.082581         1.515920
 H        -2.683545         1.733337        -0.162996
 H        -4.012852         1.467649         1.030628
 H        -3.076354        -2.789623         1.456858
 H        -4.421805        -2.701073         0.374675
 H        -2.650310        -2.596039        -1.518485
