19
Iteration:  1050charge 0 multiplicity 1
 C         1.688393         0.008630        -0.106295
 C         0.181044        -0.022505         0.088680
 C        -1.052915        -0.031415        -0.080277
 C        -2.428245        -0.001144         0.214973
 C        -3.241657         1.051587        -0.564070
 O        -3.160631        -1.357064         0.080840
 C        -3.098654        -2.285345         1.112473
 C        -3.168870        -3.651197         0.335182
 O        -2.390904        -4.535747         0.569359
 H         2.180880        -0.938223         0.192151
 H         1.855489         0.335403        -1.180376
 H         2.194382         0.677515         0.564436
 H        -2.501853         0.299356         1.307738
 H        -4.380010         0.927961        -0.420982
 H        -3.046886         2.090638        -0.162208
 H        -3.073962         0.886482        -1.616746
 H        -2.108574        -2.250067         1.677933
 H        -3.996101        -2.268584         1.785332
 H        -3.688565        -3.525251        -0.633248
