19
Iteration:  1158
 C         1.475207        -0.288288        -0.010913
 C         0.125745         0.023047         0.358052
 C        -1.107460         0.227660         0.296928
 C        -2.611437         0.150771         0.307889
 C        -3.517191         0.968338        -0.681083
 O        -3.019879        -1.193946         0.056947
 C        -2.203551        -2.330957         0.494885
 C        -3.067875        -3.564170         0.430931
 O        -2.714320        -4.701932         0.585091
 H         2.116946         0.645083         0.101672
 H         1.950864        -1.283806         0.410186
 H         1.350442        -0.386004        -1.113277
 H        -3.010761         0.504886         1.264648
 H        -4.422148         1.339725        -0.108121
 H        -3.191035         1.934064        -1.119159
 H        -3.717315         0.351025        -1.500524
 H        -1.465812        -2.443185        -0.392162
 H        -1.666398        -2.424233         1.482399
 H        -4.164632        -3.357232         0.282095
