19
Iteration:   674charge 0 multiplicity 1
 C         1.535305         0.388723        -0.334115
 C         0.166881         0.065664         0.100490
 C        -1.021644         0.117615         0.427165
 C        -2.484189        -0.047092         0.292125
 C        -3.124519         0.979456        -0.838698
 O        -2.764333        -1.427456        -0.073871
 C        -2.788379        -2.408135         1.025799
 C        -3.307227        -3.654495         0.423867
 O        -2.880461        -4.783414         0.758701
 H         1.508983         1.073758        -1.131849
 H         2.153138         0.848362         0.392131
 H         1.980002        -0.562754        -0.674735
 H        -2.882908         0.131401         1.308136
 H        -4.145690         1.337151        -0.492374
 H        -2.499655         1.916377        -0.858025
 H        -3.142456         0.405612        -1.738068
 H        -1.699321        -2.529376         1.486281
 H        -3.448695        -2.272398         1.899626
 H        -4.065729        -3.510415        -0.370348
