19
Iteration:   163
 C         1.502429         0.542849        -0.269053
 C         0.217919         0.003745         0.095449
 C        -0.965511        -0.131727         0.158992
 C        -2.405748        -0.097660         0.033466
 C        -3.043843         0.608053        -1.165289
 O        -2.853255        -1.385824         0.036534
 C        -2.448196        -2.309792         1.021267
 C        -3.442533        -3.445824         0.874179
 O        -3.178173        -4.644112         0.959488
 H         1.694574         0.249928        -1.314706
 H         1.452071         1.658355        -0.270502
 H         2.336142         0.138124         0.399093
 H        -2.733893         0.491431         0.980719
 H        -2.409533         1.431483        -1.593909
 H        -3.195771        -0.176011        -1.920257
 H        -4.042187         1.011403        -0.836044
 H        -1.399708        -2.625842         0.879430
 H        -2.629460        -1.970697         2.073462
 H        -4.400040        -3.000227         0.626119
