19
Iteration:  4988charge 0 multiplicity 1
 C         1.816060        -0.109302         0.617176
 C         0.363096        -0.110563         0.693830
 C        -0.827435        -0.296641         0.629651
 C        -2.249490        -0.489185         0.999345
 C        -2.765506         0.870124         1.413457
 O        -3.010980        -1.100994        -0.071289
 C        -2.559686        -2.422497        -0.244320
 C        -3.371776        -3.099523        -1.316234
 O        -3.976677        -4.069126        -0.925053
 H         2.223692         0.790825         1.072735
 H         2.209778        -0.930081         1.326899
 H         2.243246        -0.377702        -0.367189
 H        -2.422597        -1.295187         1.805948
 H        -2.575908         0.981102         2.460406
 H        -2.068553         1.611344         0.787359
 H        -3.849102         0.916013         1.176070
 H        -1.421212        -2.483648        -0.410048
 H        -2.618183        -3.133517         0.693545
 H        -3.676219        -2.662014        -2.252005
