19
Iteration:  2266
 C         1.007275        -1.057398        -0.799288
 C        -0.096024        -0.573571        -0.048642
 C        -1.216941        -0.308504         0.100590
 C        -2.568715        -0.083203         0.566047
 C        -3.086902         1.360150         0.473438
 O        -3.550339        -0.968065        -0.032306
 C        -3.465692        -2.293158         0.537322
 C        -2.150722        -3.045263         0.128269
 O        -1.565813        -3.952902         0.748273
 H         1.970759        -0.721107        -0.334615
 H         0.911123        -2.135742        -0.838018
 H         0.872164        -0.704393        -1.821984
 H        -2.556459        -0.309196         1.641766
 H        -4.040505         1.345236         1.006762
 H        -2.341913         2.036357         1.023055
 H        -3.142670         1.869748        -0.518889
 H        -3.581329        -2.234815         1.617919
 H        -4.313399        -2.817967         0.049551
 H        -1.810488        -2.774398        -0.843890
