19
Iteration:  2671
 C         1.536796        -0.313020        -0.564489
 C         0.099682        -0.172256        -0.153923
 C        -1.090916        -0.281703         0.185212
 C        -2.458412        -0.004697         0.705048
 C        -3.233593         1.052099        -0.163349
 O        -3.264183        -1.157553         0.788415
 C        -2.635854        -2.421476         1.163074
 C        -2.686787        -3.214010        -0.133320
 O        -2.913417        -4.379654        -0.121720
 H         1.904975        -0.620659        -1.645719
 H         2.088560         0.684644        -0.480959
 H         2.109359        -0.925588         0.148181
 H        -2.404728         0.430078         1.747227
 H        -4.257557         1.334269         0.239951
 H        -2.629900         1.947735        -0.195083
 H        -3.433829         0.693823        -1.257882
 H        -1.604603        -2.440087         1.626058
 H        -3.457664        -2.888289         1.754976
 H        -2.709219        -2.576795        -1.132453
