19
Iteration:  4416
 C         1.654153        -0.413176         0.186404
 C         0.229250        -0.560864         0.433678
 C        -0.954997        -0.375640         0.520345
 C        -2.350014        -0.243858         1.060250
 C        -2.625016         1.259923         1.043928
 O        -3.276100        -0.955539         0.213985
 C        -3.328107        -2.382540         0.267494
 C        -3.170826        -3.049122        -0.955323
 O        -2.887094        -4.245191        -0.990112
 H         2.192187        -0.653243         1.108889
 H         2.069453        -0.859540        -0.721999
 H         1.768476         0.648530         0.194450
 H        -2.196540        -0.642307         2.019346
 H        -1.699272         1.744067         1.336418
 H        -2.616939         1.550685        -0.038435
 H        -3.444619         1.474864         1.729828
 H        -2.610048        -2.755680         1.000280
 H        -4.133338        -2.985948         0.828222
 H        -3.041352        -2.335159        -1.845096
