19
Iteration:  1705charge 0 multiplicity 1
 C         1.661561         0.249028        -0.196734
 C         0.270486         0.085653         0.027837
 C        -0.998092         0.096208         0.171776
 C        -2.476820        -0.055500         0.284040
 C        -3.283909         1.233289         0.125154
 O        -2.969460        -1.313119        -0.362878
 C        -2.419084        -2.412090         0.383154
 C        -3.273363        -3.781851         0.268603
 O        -3.156205        -4.851585         0.952492
 H         2.111643         1.007938         0.466017
 H         2.265711        -0.793209         0.021056
 H         1.845271         0.431821        -1.310091
 H        -2.537843        -0.305592         1.380521
 H        -3.919205         1.475460         0.979539
 H        -2.560986         2.021054        -0.107733
 H        -3.946044         1.259665        -0.797106
 H        -1.324056        -2.768928         0.152202
 H        -2.380625        -2.145738         1.456060
 H        -4.175390        -3.755844        -0.517394
