19
Iteration:  4203charge 0 multiplicity 1
 C         1.241927        -1.263931        -0.121307
 C         0.043512        -0.584611         0.382102
 C        -1.109816        -0.109061         0.400076
 C        -2.365731        -0.035339         1.114392
 C        -3.049229         1.327713         0.903459
 O        -3.277091        -0.925967         0.535860
 C        -3.146484        -2.327420         0.527009
 C        -2.460848        -2.852959        -0.824048
 O        -2.540471        -4.057379        -1.120107
 H         2.118002        -0.814896         0.319954
 H         1.346589        -2.238775         0.280004
 H         1.471567        -1.259980        -1.202325
 H        -2.270840        -0.551876         2.159237
 H        -2.937295         2.187622         1.666386
 H        -2.617475         1.799365        -0.007082
 H        -4.086610         1.037037         0.807469
 H        -2.537993        -2.710093         1.421364
 H        -4.327577        -2.688369         0.522850
 H        -1.768658        -2.067136        -1.315321
