19
Iteration:   438
 C         1.502319         0.230686         0.000504
 C         0.075055         0.166591         0.145355
 C        -1.146087         0.125212         0.286572
 C        -2.585635        -0.155334         0.178613
 C        -3.246591         0.828889        -0.652451
 O        -2.839357        -1.482266        -0.456471
 C        -2.118685        -2.460548         0.330496
 C        -3.070854        -3.715917         0.418639
 O        -3.251581        -4.311796         1.461690
 H         1.754803         0.284673        -1.081391
 H         1.816332         1.140591         0.529309
 H         1.990946        -0.499714         0.570536
 H        -3.096696        -0.230246         1.199465
 H        -4.374387         0.747475        -0.468271
 H        -2.866632         1.813516        -0.306934
 H        -2.993168         0.875333        -1.712002
 H        -1.098134        -2.612016        -0.145678
 H        -1.936868        -2.323966         1.402135
 H        -3.519882        -3.943636        -0.617824
