19
Iteration:  2183
 C         0.845211        -1.487255        -0.639180
 C        -0.207332        -0.560396        -0.157814
 C        -1.373471        -0.126909         0.060856
 C        -2.697946         0.031204         0.588081
 C        -3.097604         1.492794         0.422784
 O        -3.596190        -1.040538         0.089884
 C        -3.348129        -2.365594         0.608939
 C        -2.063996        -3.034883         0.039829
 O        -1.223129        -3.753291         0.614865
 H         0.574578        -2.549041        -0.416004
 H         0.866912        -1.423900        -1.774281
 H         1.827294        -1.205151        -0.191278
 H        -2.710662        -0.108564         1.696953
 H        -3.976214         1.822943         0.976356
 H        -2.248053         2.050764         0.930384
 H        -3.167441         1.742586        -0.591298
 H        -3.500464        -2.410011         1.698969
 H        -4.089800        -3.047361         0.183464
 H        -1.964754        -2.739741        -0.945552
