19
Iteration:  3404
 C         1.356309        -0.749409        -0.352675
 C        -0.055785        -0.571052        -0.041158
 C        -1.260956        -0.536330         0.109147
 C        -2.467956        -0.061482         0.826135
 C        -2.810486         1.330733         0.386549
 O        -3.544938        -1.023633         0.657265
 C        -3.273889        -2.336967         0.944077
 C        -2.767045        -3.099322        -0.319571
 O        -1.943534        -3.961780        -0.530208
 H         2.011197         0.100391        -0.000092
 H         1.689110        -1.750146         0.121312
 H         1.313064        -0.876471        -1.430641
 H        -2.260874        -0.042779         1.927380
 H        -1.860282         1.888714         0.511108
 H        -3.119095         1.566760        -0.655688
 H        -3.583802         1.805742         1.025527
 H        -2.525709        -2.448599         1.788614
 H        -4.236786        -2.775526         1.259255
 H        -3.099533        -2.618697        -1.304452
