19
Iteration:   339charge 0 multiplicity 1
 C         1.517473         0.108796         0.188349
 C         0.119436         0.337438        -0.037080
 C        -1.067979         0.250408        -0.077234
 C        -2.441931        -0.071049         0.079338
 C        -3.373461         0.892347        -0.625064
 O        -2.759043        -1.437297        -0.474267
 C        -2.221666        -2.511825         0.308045
 C        -3.289995        -3.746876         0.617628
 O        -3.147132        -4.484934         1.597972
 H         1.920843         0.904265         0.890207
 H         1.626630        -0.896984         0.649277
 H         2.092963         0.062808        -0.727402
 H        -2.609812        -0.066504         1.209297
 H        -2.867035         1.829359        -1.122534
 H        -3.804031         0.278422        -1.471768
 H        -4.165137         1.231913         0.079035
 H        -1.408895        -3.075485        -0.198484
 H        -1.910003        -2.122734         1.271651
 H        -4.134316        -3.714359        -0.067045
