19
Iteration:  3309charge 0 multiplicity 1
 C         1.074194        -1.097847        -0.595353
 C        -0.121933        -0.544626         0.071273
 C        -1.258351        -0.295294         0.456387
 C        -2.524392         0.058985         0.932039
 C        -2.926007         1.441999         0.382030
 O        -3.627003        -1.025140         0.529986
 C        -3.128707        -2.336041         0.756299
 C        -2.362752        -3.006505        -0.348447
 O        -1.916245        -4.120010        -0.389229
 H         1.378418        -2.192569        -0.402189
 H         1.135840        -0.989935        -1.668751
 H         2.002699        -0.416481        -0.310900
 H        -2.396210         0.152075         2.032162
 H        -2.010539         1.780391        -0.157982
 H        -3.814068         1.413107        -0.368205
 H        -3.207281         2.102816         1.170553
 H        -2.412893        -2.072847         1.563165
 H        -3.858734        -3.014094         1.198901
 H        -2.000100        -2.290996        -1.244060
