19
Iteration:  3139
 C         1.165370        -1.044459        -0.675568
 C        -0.223041        -0.853469        -0.207158
 C        -1.250800        -0.312457         0.136305
 C        -2.481965        -0.033748         0.822612
 C        -2.960710         1.372873         0.614833
 O        -3.613623        -0.901680         0.479141
 C        -3.285095        -2.259677         0.799270
 C        -2.420937        -2.956492        -0.242707
 O        -1.693576        -3.951764        -0.076281
 H         1.588344        -0.061395        -0.449899
 H         1.693510        -1.886952        -0.087519
 H         1.403038        -1.454775        -1.648719
 H        -2.341491        -0.310605         1.895278
 H        -3.958700         1.566808         1.014042
 H        -2.245642         2.036741         1.200284
 H        -2.895821         1.575011        -0.414244
 H        -2.926375        -2.479981         1.861574
 H        -4.096466        -2.918504         0.419421
 H        -2.656948        -2.553906        -1.292391
