19
Iteration:  3231charge 0 multiplicity 1
 C         0.961967        -1.329462        -0.617462
 C        -0.054357        -0.541142        -0.013151
 C        -1.143656        -0.088941         0.370872
 C        -2.531391         0.132674         0.868611
 C        -3.244715         1.462643         0.589147
 O        -3.323397        -0.934969         0.395512
 C        -3.096906        -2.338488         0.737588
 C        -2.341249        -3.047597        -0.275809
 O        -1.850864        -4.157115        -0.276024
 H         0.607822        -1.407802        -1.715129
 H         1.952906        -0.888742        -0.725846
 H         1.152371        -2.319271        -0.112020
 H        -2.417515         0.193322         1.961490
 H        -2.852815         2.363259         1.069128
 H        -3.337396         1.670734        -0.481582
 H        -4.293006         1.270647         0.937624
 H        -3.049372        -2.337307         1.799888
 H        -4.083465        -2.736454         0.540705
 H        -2.308144        -2.525030        -1.190306
