19
Iteration:  4145charge 0 multiplicity 1
 C         1.200997        -1.210612        -0.205878
 C        -0.174905        -0.833126         0.216931
 C        -1.207005        -0.359393         0.671870
 C        -2.482177        -0.017600         1.162535
 C        -2.832173         1.360510         0.783334
 O        -3.395266        -0.889132         0.456181
 C        -3.036741        -2.322088         0.577377
 C        -2.589261        -2.781677        -0.751922
 O        -2.209890        -3.904109        -1.070855
 H         1.619634        -1.720661         0.677609
 H         1.131808        -1.899186        -1.052792
 H         1.853480        -0.342966        -0.505466
 H        -2.680265        -0.225782         2.248368
 H        -2.160264         2.117679         1.079559
 H        -3.071461         1.379072        -0.317112
 H        -3.810167         1.609501         1.308722
 H        -2.284885        -2.623384         1.351173
 H        -3.917482        -2.915237         0.941908
 H        -2.390158        -1.909938        -1.461132
