19
Iteration:  3354
 C         1.373633        -0.900857        -0.548967
 C         0.018575        -0.671076        -0.030493
 C        -1.067012        -0.449646         0.477515
 C        -2.395135         0.018649         0.953265
 C        -3.122569         1.284372         0.315662
 O        -3.486633        -0.950111         0.591180
 C        -3.308542        -2.366513         0.822202
 C        -2.710320        -2.994876        -0.417788
 O        -1.928710        -3.942248        -0.380680
 H         1.943848        -1.178762         0.353704
 H         1.368868        -1.767178        -1.181212
 H         1.662951         0.107615        -1.056042
 H        -2.413244         0.156206         2.048562
 H        -2.640745         1.984236        -0.409010
 H        -4.040589         0.901772        -0.237553
 H        -3.583448         1.956739         1.032698
 H        -2.678917        -2.699232         1.656977
 H        -4.347817        -2.714105         0.941822
 H        -2.919932        -2.706282        -1.457252
