19
Iteration:  4080charge 0 multiplicity 1
 C         1.181852        -1.204468        -0.358620
 C         0.013978        -0.767222         0.344240
 C        -1.137669        -0.571614         0.623996
 C        -2.458959        -0.174741         1.120445
 C        -2.759567         1.255049         0.644062
 O        -3.596177        -0.892481         0.657992
 C        -3.375214        -2.305474         0.469435
 C        -2.680275        -2.707883        -0.788663
 O        -1.877116        -3.635992        -0.821915
 H         1.056065        -2.191014        -0.720277
 H         1.356624        -0.617962        -1.196034
 H         2.143456        -1.240700         0.117923
 H        -2.298090        -0.164456         2.238951
 H        -2.044461         1.990763         0.862918
 H        -2.890989         1.196829        -0.440407
 H        -3.803145         1.463390         0.858929
 H        -2.828509        -2.752692         1.342086
 H        -4.425649        -2.729816         0.451373
 H        -2.941046        -1.965819        -1.640855
