19
Iteration:  1252charge 0 multiplicity 1
 C         1.690159         0.177348         0.141125
 C         0.167471        -0.076392         0.152984
 C        -1.035375        -0.041811        -0.052783
 C        -2.476559         0.041605         0.291775
 C        -3.357472         1.081480        -0.371529
 O        -3.206920        -1.204408         0.154369
 C        -2.412168        -2.351148         0.361991
 C        -3.236989        -3.708213         0.253813
 O        -2.800596        -4.734573         0.759840
 H         1.952878        -0.155824        -0.860420
 H         1.932564         1.180624         0.223478
 H         2.225654        -0.387021         0.903539
 H        -2.490558         0.247297         1.366141
 H        -4.095066         0.483167        -0.927824
 H        -4.032984         1.670256         0.270746
 H        -2.852043         1.810757        -1.016919
 H        -1.779762        -2.473595        -0.567302
 H        -1.657055        -2.371749         1.157011
 H        -4.011938        -3.682339        -0.564410
