19
Iteration:  4780charge 0 multiplicity 1
 C         1.778006        -0.087520         0.439001
 C         0.399783        -0.422850         0.712005
 C        -0.839191        -0.390970         0.670184
 C        -2.193148        -0.364702         0.959810
 C        -2.693525         1.043284         1.171284
 O        -3.041100        -1.046153         0.011759
 C        -2.911672        -2.422617         0.120362
 C        -3.720519        -3.084246        -0.890714
 O        -3.372099        -4.162738        -1.337999
 H         1.878160         0.816191        -0.223980
 H         2.079477         0.189064         1.541740
 H         2.335358        -0.990624         0.087841
 H        -2.260662        -0.964836         1.973604
 H        -1.972822         1.528646         1.825145
 H        -2.637620         1.455742         0.163868
 H        -3.729551         1.179395         1.544771
 H        -1.840727        -2.766943        -0.141939
 H        -3.152208        -2.844640         1.117342
 H        -4.795838        -2.711096        -0.993777
