19
Iteration:  4573
 C         1.446247        -0.625549         0.014400
 C         0.153033        -0.559345         0.660248
 C        -0.981260        -0.198796         0.972376
 C        -2.461686        -0.163090         1.196526
 C        -2.938387         1.293530         0.961203
 O        -2.967291        -1.023490         0.144624
 C        -2.570705        -2.413600         0.262313
 C        -2.907267        -3.054965        -1.054529
 O        -3.417598        -4.162244        -1.119803
 H         1.332881        -0.852792        -1.084286
 H         2.001314         0.317413        -0.058106
 H         2.185729        -1.354797         0.424507
 H        -2.720707        -0.647543         2.220402
 H        -2.472773         2.224981         1.436819
 H        -2.791987         1.422836        -0.100391
 H        -4.039397         1.507070         1.013566
 H        -1.543889        -2.433562         0.435629
 H        -3.183236        -3.048224         0.933481
 H        -2.363339        -2.705044        -1.880991
