19
Iteration:  2305
 C         1.180991        -0.793574        -0.738562
 C        -0.148581        -0.399480        -0.384344
 C        -1.222404        -0.395365         0.264285
 C        -2.579987        -0.118595         0.653906
 C        -2.881927         1.396663         0.421523
 O        -3.555934        -1.027755         0.054740
 C        -3.437426        -2.347804         0.552937
 C        -2.284845        -3.211612        -0.014537
 O        -1.819606        -4.014770         0.794599
 H         1.855233         0.051701        -0.774728
 H         1.624019        -1.400124         0.098442
 H         1.293340        -1.243705        -1.786414
 H        -2.663808        -0.267405         1.757999
 H        -3.979963         1.513248         0.310049
 H        -2.587216         1.951843         1.250034
 H        -2.370228         1.697847        -0.537351
 H        -3.228922        -2.390241         1.674650
 H        -4.375805        -2.933795         0.407421
 H        -1.907432        -3.059265        -1.122190
