19
Iteration:  3246
 C         0.990616        -1.304949        -0.673074
 C        -0.185729        -0.674660        -0.009053
 C        -1.113360         0.010568         0.477912
 C        -2.471739         0.134200         0.912036
 C        -3.262770         1.397209         0.530291
 O        -3.371334        -0.903251         0.377024
 C        -3.182619        -2.219356         0.795597
 C        -2.214873        -3.056161        -0.321011
 O        -1.862587        -4.207196        -0.313219
 H         0.774883        -1.879297        -1.533307
 H         1.665587        -0.456516        -0.766678
 H         1.348715        -2.135421         0.026587
 H        -2.503322        -0.026520         2.004413
 H        -2.526395         2.230300         0.728220
 H        -3.542562         1.417267        -0.588064
 H        -4.064130         1.588143         1.214987
 H        -2.693502        -2.488278         1.742256
 H        -4.170510        -2.774812         0.737043
 H        -2.087545        -2.342857        -1.227979
