19
Iteration:  4620
 C         1.487485        -0.692588         0.065315
 C         0.213151        -0.284996         0.669321
 C        -0.917404        -0.110252         1.083628
 C        -2.410579        -0.187540         1.290835
 C        -2.942978         1.120964         0.846883
 O        -3.005532        -1.097034         0.186561
 C        -2.547857        -2.437278         0.180771
 C        -3.002510        -3.015284        -1.109008
 O        -3.468129        -4.134895        -1.160014
 H         1.467815        -1.768281        -0.156348
 H         1.677719        -0.415521        -1.016946
 H         2.431429        -0.482444         0.612539
 H        -2.750033        -0.551915         2.314947
 H        -2.546625         1.924025         1.464610
 H        -2.609299         1.475663        -0.157011
 H        -4.028927         1.301567         0.840241
 H        -1.479093        -2.468974        -0.001212
 H        -2.887688        -2.959043         1.103217
 H        -3.121854        -2.259944        -1.872032
