19
Iteration:  2991
 C         1.084588        -1.015383        -0.842548
 C        -0.088080        -0.473060        -0.077081
 C        -1.201496        -0.229722         0.428763
 C        -2.535527        -0.033684         0.787793
 C        -2.954703         1.428546         0.499716
 O        -3.478088        -1.007933         0.405951
 C        -3.236432        -2.363716         0.740735
 C        -2.321445        -3.032651        -0.208468
 O        -1.952650        -4.173206         0.031899
 H         1.084238        -2.006084        -1.307827
 H         1.325655        -0.367884        -1.641799
 H         2.062935        -0.947137        -0.330297
 H        -2.539921         0.007476         1.885615
 H        -3.691696         1.728842         1.288536
 H        -2.033317         2.016088         0.584037
 H        -3.464900         1.737371        -0.465779
 H        -2.956334        -2.554368         1.787482
 H        -4.260703        -2.789169         0.475911
 H        -2.433415        -2.493329        -1.302504
