19
Iteration:  4007
 C         1.134129        -1.275958        -0.344559
 C        -0.217515        -0.960054         0.083595
 C        -1.326853        -0.549685         0.378055
 C        -2.515967        -0.096910         1.126321
 C        -2.780699         1.289889         0.771435
 O        -3.620643        -0.900524         0.658329
 C        -3.338225        -2.207827         0.517596
 C        -2.449056        -2.645905        -0.700076
 O        -1.698464        -3.641198        -0.698399
 H         1.360594        -1.107828        -1.436665
 H         2.012850        -0.891595         0.279732
 H         1.248380        -2.440298        -0.364133
 H        -2.380127        -0.127571         2.205679
 H        -1.933453         1.850667         1.249519
 H        -2.671018         1.405325        -0.341856
 H        -3.791562         1.626363         0.943929
 H        -2.879978        -2.765379         1.326962
 H        -4.306081        -2.693921         0.351033
 H        -2.466157        -2.013265        -1.653875
