19
Iteration:  2797charge 0 multiplicity 1
 C         1.287846        -0.465551        -0.690879
 C         0.007166        -0.290245        -0.094059
 C        -1.086004        -0.318185         0.374571
 C        -2.468556        -0.045688         0.671699
 C        -3.055096         1.292154         0.012398
 O        -3.310536        -1.119885         0.632132
 C        -2.804966        -2.417951         1.108825
 C        -2.763034        -3.171812        -0.108688
 O        -2.478198        -4.361454        -0.164036
 H         1.972327        -0.631457         0.077622
 H         1.156104        -1.434072        -1.197495
 H         1.623317         0.127891        -1.577488
 H        -2.471427         0.381951         1.706339
 H        -4.087721         1.379360         0.330802
 H        -2.528363         1.990247         0.590185
 H        -2.843279         1.595017        -0.994962
 H        -1.788355        -2.329962         1.599491
 H        -3.615902        -2.967541         1.574593
 H        -3.055883        -2.617738        -0.959936
