19
Iteration:  4097
 C         1.220953        -1.204554        -0.371790
 C        -0.010879        -0.828375         0.324163
 C        -1.128634        -0.599877         0.774081
 C        -2.473753        -0.023655         1.094744
 C        -2.815387         1.426727         0.631479
 O        -3.581375        -0.967863         0.650947
 C        -3.325164        -2.326572         0.514686
 C        -2.648291        -2.754236        -0.861172
 O        -1.933816        -3.739947        -0.896054
 H         1.327825        -2.359988        -0.355286
 H         1.215414        -0.727302        -1.461175
 H         2.090159        -0.771758         0.182887
 H        -2.663863        -0.114789         2.151376
 H        -1.905272         2.052454         0.958674
 H        -3.036129         1.612523        -0.437277
 H        -3.544377         1.941364         1.326004
 H        -2.704085        -2.753810         1.310683
 H        -4.243133        -2.868956         0.674988
 H        -2.960695        -2.150376        -1.798845
