19
Iteration:   246charge 0 multiplicity 1
 C         1.622097         0.439851        -0.025327
 C         0.212240         0.134897        -0.049417
 C        -1.003147        -0.041441         0.056911
 C        -2.450516        -0.036246         0.050982
 C        -3.102414         0.946891        -1.041936
 O        -3.001543        -1.448891        -0.083220
 C        -2.381229        -2.500870         0.573189
 C        -3.414912        -3.623513         0.830804
 O        -3.128266        -4.704627         1.311916
 H         2.224105        -0.198268         0.613368
 H         1.981252         0.469374        -1.050413
 H         1.732222         1.500223         0.249490
 H        -2.775792         0.321649         1.138216
 H        -3.949949         0.607055        -1.577694
 H        -3.436239         1.799997        -0.430320
 H        -2.388358         1.308609        -1.792405
 H        -1.459883        -2.817906         0.016014
 H        -2.038052        -2.282403         1.650331
 H        -4.461038        -3.325239         0.729473
