19
Iteration:  4171charge 0 multiplicity 1
 C         1.342532        -1.317914        -0.228523
 C         0.041497        -0.669174         0.247899
 C        -1.068669        -0.309228         0.689704
 C        -2.487182        -0.016164         1.022187
 C        -3.043640         1.413212         0.853518
 O        -3.480894        -0.944742         0.567820
 C        -3.052377        -2.281393         0.538615
 C        -2.468214        -2.781186        -0.851478
 O        -2.401015        -3.966897        -1.047680
 H         1.956702        -1.346695         0.659963
 H         1.119798        -2.313985        -0.556743
 H         1.947122        -0.855049        -1.008535
 H        -2.677846        -0.236757         2.170255
 H        -2.590751         2.115136         1.622277
 H        -3.006568         1.888918        -0.144633
 H        -4.111429         1.377346         0.944816
 H        -2.509609        -2.653847         1.454891
 H        -3.893609        -3.023944         0.748481
 H        -2.140790        -2.011345        -1.587287
