19
Iteration:  4039
 C         1.273684        -1.253240        -0.391460
 C        -0.095388        -0.886332         0.004667
 C        -1.142501        -0.665999         0.638220
 C        -2.440386        -0.093380         1.036755
 C        -2.771523         1.327107         0.647507
 O        -3.703647        -0.997752         0.677722
 C        -3.541804        -2.369768         0.543617
 C        -2.540408        -2.596033        -0.629273
 O        -1.752112        -3.504020        -0.759117
 H         1.210189        -1.667197        -1.407717
 H         2.006617        -0.430461        -0.351263
 H         1.438127        -2.022326         0.418438
 H        -2.625789        -0.107209         2.117592
 H        -2.223466         1.908866         1.417279
 H        -2.398171         1.641979        -0.344581
 H        -3.811461         1.394291         0.822738
 H        -3.096076        -2.844281         1.407915
 H        -4.533332        -2.739268         0.284759
 H        -2.414598        -1.839355        -1.359395
