19
Iteration:  1850charge 0 multiplicity 1
 C         1.594172        -0.216666        -0.453244
 C         0.114757         0.099316         0.047856
 C        -0.963251        -0.146977         0.577065
 C        -2.488419         0.042019         0.587242
 C        -3.232051         0.839247        -0.534758
 O        -3.368061        -1.123435         0.522872
 C        -2.622318        -2.281201         0.857979
 C        -2.989561        -3.444052        -0.036424
 O        -2.670021        -4.544426         0.247174
 H         1.465941        -1.095848        -1.164114
 H         1.937440         0.587503        -1.131375
 H         2.128911        -0.495373         0.495550
 H        -2.718021         0.558614         1.525844
 H        -4.115368         1.251953        -0.083136
 H        -2.817021         1.758928        -1.007036
 H        -3.341323         0.082778        -1.217095
 H        -1.528853        -2.076681         0.676047
 H        -2.678973        -2.625231         1.883622
 H        -3.540784        -3.173878        -0.903469
