19
Iteration:  4550
 C         1.512758        -0.624783         0.106327
 C         0.111868        -0.497664         0.456217
 C        -0.934251        -0.205805         0.983941
 C        -2.350919        -0.160224         1.114856
 C        -2.902735         1.158927         0.937902
 O        -3.078520        -0.971241         0.111892
 C        -2.728833        -2.385783         0.318255
 C        -2.882037        -3.053202        -0.975052
 O        -3.351793        -4.185667        -1.114600
 H         1.486343        -0.250286        -0.965066
 H         2.197217         0.079150         0.546265
 H         1.914353        -1.664181         0.112257
 H        -2.549172        -0.513485         2.204582
 H        -2.490104         1.859666         1.792563
 H        -2.733083         1.804260         0.070585
 H        -3.983225         1.080126         1.130624
 H        -1.747892        -2.372875         0.664129
 H        -3.471185        -2.973311         0.884623
 H        -2.520932        -2.519631        -1.827739
