19
Iteration:   574charge 0 multiplicity 1
 C         1.609342         0.678423         0.014182
 C         0.273053         0.265051        -0.173994
 C        -0.916636         0.060896        -0.165030
 C        -2.336251        -0.132615         0.166377
 C        -3.021723         0.816779        -0.785028
 O        -2.967462        -1.396572         0.037481
 C        -2.708661        -2.398394         1.102215
 C        -3.397408        -3.750283         0.640849
 O        -3.148134        -4.930668         0.750281
 H         1.852826         0.708274         1.049092
 H         2.368825         0.079354        -0.453352
 H         1.736792         1.613791        -0.456880
 H        -2.365722         0.183979         1.249433
 H        -4.047742         0.444876        -0.821812
 H        -2.884963         1.838901        -0.498418
 H        -2.508278         0.797388        -1.735925
 H        -1.604022        -2.602701         1.392740
 H        -3.241982        -2.057048         1.973812
 H        -4.336600        -3.491149         0.028016
