19
Iteration:  2802
 C         1.298083        -0.532929        -0.717340
 C         0.047997        -0.288713        -0.099031
 C        -1.114862        -0.252650         0.370546
 C        -2.477323        -0.008374         0.691623
 C        -3.067174         1.311800         0.049626
 O        -3.303314        -1.150330         0.594816
 C        -2.821643        -2.436984         1.109351
 C        -2.746942        -3.185363        -0.105099
 O        -2.459762        -4.344324        -0.163417
 H         2.142372        -0.450515         0.083343
 H         1.132576        -1.589866        -1.086823
 H         1.412199         0.172564        -1.537318
 H        -2.607168         0.253945         1.773791
 H        -4.154715         1.354956         0.295645
 H        -2.415951         2.081638         0.606496
 H        -2.867856         1.465357        -1.078339
 H        -1.888715        -2.451971         1.667365
 H        -3.700666        -2.894867         1.703691
 H        -3.107832        -2.522960        -1.003723
