19
Iteration:   929charge 0 multiplicity 1
 C         1.365709        -0.061158        -0.387140
 C         0.055479        -0.093655         0.239874
 C        -1.140348        -0.092770         0.402315
 C        -2.663988        -0.004728         0.345773
 C        -3.025896         1.085798        -0.644209
 O        -3.157626        -1.257770        -0.131497
 C        -2.863945        -2.269439         0.894024
 C        -2.582602        -3.565068         0.233000
 O        -2.694043        -4.589111         0.856770
 H         1.638028         0.834165        -0.976849
 H         2.151842        -0.154159         0.403829
 H         1.494682        -0.876853        -1.096274
 H        -3.006479         0.258061         1.370885
 H        -3.839879         1.782678        -0.180507
 H        -2.244459         1.864481        -0.815923
 H        -3.428516         0.616251        -1.593933
 H        -1.893354        -1.988861         1.378385
 H        -3.634373        -2.458012         1.666155
 H        -2.200069        -3.541848        -0.822090
