19
Iteration:   678charge 0 multiplicity 1
 C         1.544840         0.362641        -0.343934
 C         0.149280         0.062044         0.102587
 C        -1.047083         0.183518         0.395273
 C        -2.476879        -0.007654         0.356958
 C        -3.109697         0.974440        -0.841780
 O        -2.797333        -1.442646        -0.071690
 C        -2.767356        -2.401477         1.016064
 C        -3.273200        -3.679789         0.391141
 O        -2.889795        -4.791940         0.767037
 H         1.567439         1.005959        -1.277738
 H         2.097941         0.885932         0.484446
 H         2.089917        -0.597207        -0.586387
 H        -2.908897         0.102749         1.391691
 H        -4.057564         1.388738        -0.563648
 H        -2.454621         1.844455        -0.801178
 H        -3.129419         0.214611        -1.697480
 H        -1.798268        -2.519413         1.419262
 H        -3.438060        -2.261910         1.908304
 H        -4.059252        -3.469246        -0.381271
