19
Iteration:  1233
 C         1.610686         0.028942         0.180149
 C         0.144854         0.066666        -0.007915
 C        -1.093603        -0.002439         0.052554
 C        -2.516043         0.026105         0.258229
 C        -3.389277         1.194786        -0.475762
 O        -3.200781        -1.303197         0.292095
 C        -2.234928        -2.441318         0.269948
 C        -3.090762        -3.651530         0.255396
 O        -2.857712        -4.734059         0.743709
 H         2.204431         0.094193        -0.754158
 H         1.843924         0.863785         0.872084
 H         1.816171        -0.886369         0.727763
 H        -2.510893         0.405908         1.328604
 H        -4.354237         0.948640        -1.028658
 H        -3.778119         1.915111         0.292134
 H        -2.758489         1.693303        -1.152718
 H        -1.619747        -2.525313        -0.608751
 H        -1.738749        -2.420886         1.237945
 H        -4.198053        -3.378733         0.056468
