19
Iteration:  2379
 C         1.421216        -0.354575        -0.823426
 C         0.146146        -0.220004        -0.041732
 C        -1.108920        -0.499422         0.161931
 C        -2.521954        -0.214116         0.655018
 C        -2.847488         1.205962         0.267807
 O        -3.605930        -1.034843         0.109056
 C        -3.455745        -2.301691         0.770897
 C        -2.502382        -3.214445         0.029492
 O        -2.178012        -4.282662         0.599113
 H         1.265117        -0.311771        -1.896594
 H         2.057149         0.502681        -0.695465
 H         1.961973        -1.262068        -0.564565
 H        -2.550207        -0.457648         1.719450
 H        -3.576897         1.653417         0.962361
 H        -1.972536         1.809132         0.215419
 H        -3.246914         1.112414        -0.758502
 H        -3.117692        -2.344435         1.817829
 H        -4.488140        -2.678397         0.656749
 H        -2.208172        -2.973284        -1.093046
