19
Iteration:  1129
 C         1.382549        -0.170309        -0.029954
 C         0.012579        -0.136756         0.338778
 C        -1.163330         0.126544         0.071560
 C        -2.611103         0.022458         0.302341
 C        -3.281678         1.103652        -0.575700
 O        -3.086806        -1.274317        -0.044104
 C        -2.315572        -2.274155         0.682255
 C        -3.055360        -3.518819         0.464700
 O        -2.579764        -4.647270         0.549626
 H         2.033989         0.267966         0.701815
 H         1.711913        -1.190767        -0.234908
 H         1.462057         0.356031        -0.971601
 H        -2.895347         0.269106         1.364079
 H        -4.134679         1.654166        -0.145693
 H        -2.517794         1.693574        -1.099580
 H        -3.790905         0.592102        -1.472125
 H        -1.267299        -2.304410         0.400732
 H        -2.243905        -2.304570         1.776461
 H        -4.157655        -3.342206         0.472876
