19
Iteration:  4478
 C         1.748882        -0.573200         0.212840
 C         0.314763        -0.379936         0.436727
 C        -0.892780        -0.144397         0.530813
 C        -2.354553        -0.194124         1.011049
 C        -2.823932         1.184489         1.080251
 O        -3.207654        -0.989054         0.254752
 C        -3.209716        -2.421249         0.375332
 C        -3.121080        -3.092381        -0.978328
 O        -3.077390        -4.290290        -1.104637
 H         2.267957         0.301933         0.631458
 H         2.342129        -1.421420         0.691249
 H         1.914983        -0.572157        -0.898763
 H        -2.223045        -0.610037         2.089847
 H        -2.261084         1.943479         1.627874
 H        -2.951247         1.568658         0.002257
 H        -3.926040         1.302665         1.391666
 H        -2.292485        -2.867518         0.935946
 H        -4.219666        -2.513936         0.746454
 H        -2.897651        -2.419150        -1.768817
