19
Iteration:   488
 C         1.550110         0.437801         0.002876
 C         0.127203         0.305022         0.138430
 C        -1.065255         0.180237         0.136151
 C        -2.485160        -0.109482         0.155376
 C        -3.186818         0.961444        -0.780007
 O        -2.843374        -1.490103        -0.145317
 C        -2.254993        -2.635599         0.495517
 C        -3.192134        -3.838483         0.320664
 O        -3.298729        -4.545305         1.337124
 H         1.892914        -0.525270        -0.375729
 H         1.813110         1.224187        -0.738238
 H         2.091107         0.669638         1.019719
 H        -2.830960         0.005483         1.195929
 H        -4.041984         1.479294        -0.302370
 H        -2.531543         1.742794        -1.145226
 H        -3.615555         0.434840        -1.635520
 H        -1.247491        -2.916502         0.202801
 H        -2.167864        -2.519200         1.615264
 H        -3.867417        -3.864980        -0.584460
