19
Iteration:  4835
 C         1.848652        -0.089739         0.367147
 C         0.357321        -0.171425         0.661589
 C        -0.786905        -0.247557         1.026990
 C        -2.169153        -0.375312         1.177363
 C        -2.791305         1.057700         1.056883
 O        -2.789684        -1.182001         0.083479
 C        -2.733651        -2.566846         0.070886
 C        -3.775352        -3.074770        -1.038908
 O        -3.740973        -4.223490        -1.427985
 H         2.276145        -0.476638        -0.600304
 H         1.894895         1.052408         0.378059
 H         2.332926        -0.655205         1.235352
 H        -2.392136        -0.861558         2.152867
 H        -2.622614         1.493263         2.007661
 H        -2.186067         1.595368         0.277527
 H        -3.833341         0.976804         0.740243
 H        -1.754543        -2.918075        -0.329265
 H        -2.932301        -2.878093         1.107617
 H        -4.562510        -2.434746        -1.453642
