19
Iteration:  4377
 C         1.694556        -0.429436         0.050523
 C         0.246158        -0.499602         0.470648
 C        -0.965780        -0.591778         0.692933
 C        -2.311754        -0.255939         1.018359
 C        -2.648153         1.262693         0.956836
 O        -3.433011        -0.869837         0.285920
 C        -3.349100        -2.323213         0.382495
 C        -3.050370        -3.079297        -0.890310
 O        -2.817694        -4.269148        -1.099334
 H         2.364553        -1.335340         0.133851
 H         1.900763        -0.018356        -0.948713
 H         2.237435         0.280078         0.811238
 H        -2.617589        -0.609447         2.111669
 H        -2.331745         1.934428         1.835098
 H        -2.261956         1.628951         0.015830
 H        -3.695562         1.585156         0.793123
 H        -2.534998        -2.695771         1.119012
 H        -4.364023        -2.428415         0.650107
 H        -2.939647        -2.332281        -1.803489
