19
Iteration:  2675charge 0 multiplicity 1
 C         1.561776        -0.298701        -0.586221
 C         0.110981        -0.176980        -0.126362
 C        -1.051648        -0.222057         0.141047
 C        -2.464782        -0.038151         0.705989
 C        -3.233735         1.036012        -0.169221
 O        -3.308370        -1.188951         0.789314
 C        -2.658367        -2.442863         1.179305
 C        -2.718087        -3.187347        -0.150393
 O        -2.893504        -4.362203        -0.115430
 H         1.740520        -0.726621        -1.564430
 H         2.044447         0.644461        -0.509269
 H         2.124414        -0.841517         0.231099
 H        -2.315436         0.292842         1.757005
 H        -4.138919         1.386516         0.257472
 H        -2.491326         1.884344        -0.257162
 H        -3.369057         0.634645        -1.126122
 H        -1.607176        -2.362235         1.649168
 H        -3.424243        -2.848381         1.833310
 H        -2.753904        -2.501147        -1.055292
