19
Iteration:  4982
 C         1.814722        -0.127996         0.610403
 C         0.369412        -0.099157         0.674966
 C        -0.825257        -0.319521         0.685693
 C        -2.219160        -0.550325         0.968156
 C        -2.790025         0.892347         1.382229
 O        -3.036195        -1.026737        -0.086658
 C        -2.539581        -2.505065        -0.248709
 C        -3.360430        -3.067646        -1.252739
 O        -3.975148        -4.062727        -0.919221
 H         2.140824         0.755310         1.217184
 H         2.039834        -0.997181         1.163389
 H         2.143647        -0.116810        -0.440581
 H        -2.310497        -1.325331         1.690271
 H        -2.530957         1.091738         2.473441
 H        -2.154189         1.565158         0.984121
 H        -3.875365         0.875253         1.307239
 H        -1.512693        -2.595230        -0.537712
 H        -2.695747        -3.004921         0.648991
 H        -3.353248        -2.683871        -2.384117
