19
Iteration:  1199
 C         1.363714        -0.178028         0.147093
 C         0.014891         0.174346        -0.049707
 C        -1.155465         0.269455         0.198302
 C        -2.487774         0.061412         0.430435
 C        -3.294547         0.916646        -0.554047
 O        -3.027405        -1.206868         0.192007
 C        -2.209957        -2.428696         0.325957
 C        -3.091886        -3.583499         0.346490
 O        -2.829236        -4.701249         0.659034
 H         2.145318         0.450072        -0.304515
 H         1.549047        -0.161604         1.214297
 H         1.503980        -1.220581        -0.185175
 H        -2.620224         0.330014         1.534533
 H        -4.293029         0.451812        -0.771641
 H        -3.233152         1.990304        -0.300364
 H        -2.759345         0.864075        -1.524055
 H        -1.642022        -2.661017        -0.587659
 H        -1.359413        -2.377884         0.984762
 H        -4.110073        -3.129641         0.126394
