19
Iteration:  2403charge 0 multiplicity 1
 C         1.352897        -0.306107        -0.642687
 C        -0.066727        -0.140517        -0.312068
 C        -1.096442        -0.384972         0.194313
 C        -2.411410        -0.141201         0.627036
 C        -2.766347         1.318423         0.219229
 O        -3.453373        -1.040846         0.200159
 C        -3.478061        -2.323253         0.782668
 C        -2.562039        -3.400982         0.083758
 O        -2.223206        -4.478055         0.493791
 H         1.433486        -0.877823        -1.510291
 H         1.863985         0.609583        -0.928866
 H         1.885128        -0.834346         0.197508
 H        -2.375107        -0.276406         1.712501
 H        -3.457122         1.720972         0.958015
 H        -1.887455         1.876346         0.152307
 H        -3.220126         1.310148        -0.810746
 H        -3.108829        -2.340980         1.862080
 H        -4.572318        -2.532452         0.737209
 H        -2.247501        -3.025938        -0.973205
