19
Iteration:  1827
 C         1.501131        -0.103737        -0.431110
 C         0.196299        -0.044914         0.140085
 C        -1.020599         0.045386         0.376074
 C        -2.487903         0.100821         0.567189
 C        -3.226206         0.902653        -0.486526
 O        -3.156853        -1.144255         0.466060
 C        -2.621419        -2.371358         0.835042
 C        -3.065963        -3.517395         0.031458
 O        -2.785392        -4.661587         0.300745
 H         1.522590        -0.379048        -1.496017
 H         1.942744         0.949399        -0.471267
 H         2.164867        -0.796826         0.170916
 H        -2.684063         0.629262         1.505790
 H        -4.263329         0.970645        -0.298204
 H        -2.879071         1.967010        -0.569435
 H        -2.952545         0.390761        -1.344521
 H        -1.515425        -2.300906         0.754344
 H        -2.816607        -2.660755         1.875566
 H        -3.604167        -3.233758        -0.839977
