19
Iteration:   648
 C         1.526072         0.505564        -0.325981
 C         0.193295         0.203621         0.183970
 C        -0.968293        -0.140486         0.291879
 C        -2.404290        -0.153458         0.240572
 C        -3.099977         0.829301        -0.710268
 O        -2.781403        -1.508976        -0.206759
 C        -2.834408        -2.245515         1.026078
 C        -3.398684        -3.624162         0.568669
 O        -2.881735        -4.682661         0.714397
 H         1.660005         1.616507        -0.571107
 H         2.356502         0.374317         0.460877
 H         1.738834        -0.170630        -1.135190
 H        -2.690113         0.013535         1.270788
 H        -4.171880         0.679452        -0.543706
 H        -2.800355         1.873613        -0.505788
 H        -2.770806         0.693789        -1.787887
 H        -1.817233        -2.337160         1.469779
 H        -3.516496        -1.870131         1.837828
 H        -4.386301        -3.544032         0.013345
