19
Iteration:  3922charge 0 multiplicity 1
 C         0.937552        -1.472507        -0.497202
 C        -0.145464        -0.714085         0.110480
 C        -1.097983        -0.073227         0.537788
 C        -2.529424        -0.041559         1.120444
 C        -3.117652         1.322697         0.983905
 O        -3.291394        -0.832321         0.360484
 C        -3.140162        -2.244749         0.460282
 C        -2.327233        -2.828566        -0.661568
 O        -1.950009        -3.978634        -0.608745
 H         1.778460        -1.031999         0.064437
 H         0.764234        -2.558763        -0.287922
 H         0.919537        -1.484225        -1.524105
 H        -2.384377        -0.432699         2.172912
 H        -2.407548         2.180163         1.183516
 H        -3.362094         1.374440        -0.138037
 H        -4.014473         1.396484         1.582835
 H        -2.711461        -2.532283         1.463945
 H        -4.221014        -2.417890         0.204748
 H        -2.280887        -2.077439        -1.499864
