19
Iteration:  3553
 C         1.019311        -0.938520        -0.614863
 C        -0.140619        -0.462278         0.057016
 C        -1.140640        -0.342155         0.730977
 C        -2.528397         0.082477         1.023106
 C        -2.984372         1.419976         0.689417
 O        -3.256244        -0.914357         0.208638
 C        -3.006423        -2.294478         0.573590
 C        -2.236536        -3.127547        -0.429852
 O        -2.383663        -4.321248        -0.366538
 H         0.818237        -1.937803        -0.879920
 H         1.020104        -0.455219        -1.575484
 H         2.018973        -0.603682        -0.256671
 H        -2.793045        -0.239306         2.053246
 H        -2.207477         2.179565         0.713986
 H        -3.306786         1.401477        -0.342493
 H        -3.820740         1.750203         1.327473
 H        -2.614958        -2.361848         1.637492
 H        -4.075506        -2.679013         0.473610
 H        -1.431303        -2.538940        -1.068329
