19
Iteration:   696
 C         1.510904         0.221716        -0.285042
 C         0.117877         0.177310         0.034434
 C        -1.060317         0.297579         0.287435
 C        -2.535949         0.040068         0.394330
 C        -2.996481         0.813439        -0.701736
 O        -2.918884        -1.292484         0.014480
 C        -2.703545        -2.378185         0.910660
 C        -3.164249        -3.722633         0.320383
 O        -2.929767        -4.855673         0.791923
 H         1.617676         0.485408        -1.298491
 H         1.956903         1.055070         0.189227
 H         2.019895        -0.738680        -0.066303
 H        -2.925913         0.376758         1.363819
 H        -4.036196         1.226492        -0.592753
 H        -2.354688         1.654320        -1.081923
 H        -3.029979         0.087918        -1.488508
 H        -1.571550        -2.452422         1.297258
 H        -3.291030        -2.283998         1.857478
 H        -3.679553        -3.658693        -0.666186
