19
Iteration:  3306
 C         1.096611        -1.114090        -0.600353
 C        -0.136002        -0.537038         0.062952
 C        -1.278583        -0.325551         0.481946
 C        -2.542899         0.058668         0.912419
 C        -2.938102         1.448735         0.399389
 O        -3.636086        -1.018596         0.520860
 C        -3.067508        -2.325208         0.734764
 C        -2.338278        -2.990778        -0.336719
 O        -1.931027        -4.121130        -0.378776
 H         1.265433        -2.227088        -0.493422
 H         1.085516        -0.945736        -1.689761
 H         1.911828        -0.533852        -0.260977
 H        -2.389022         0.188296         2.011631
 H        -2.081245         1.849038        -0.125308
 H        -3.723673         1.453732        -0.323265
 H        -3.218079         2.204010         1.150242
 H        -2.377347        -2.101051         1.614148
 H        -3.804156        -3.029957         1.125495
 H        -1.987948        -2.401340        -1.219182
