19
Iteration:  1959charge 0 multiplicity 1
 C         1.422705        -0.700082        -0.214556
 C         0.124063        -0.162228        -0.183806
 C        -1.125374        -0.140066        -0.021724
 C        -2.470952         0.066450         0.549885
 C        -3.428181         0.917659        -0.381248
 O        -3.403606        -1.085249         0.805209
 C        -2.823548        -2.297501         1.092078
 C        -2.692339        -3.132150        -0.094193
 O        -2.267321        -4.254072         0.056672
 H         1.923508        -0.605731         0.797610
 H         1.418967        -1.752882        -0.570944
 H         2.136144        -0.208401        -0.923210
 H        -2.370134         0.703515         1.466017
 H        -4.479394         0.696108        -0.115715
 H        -3.133672         1.962904        -0.411654
 H        -3.301062         0.595071        -1.394491
 H        -1.898250        -2.224635         1.632486
 H        -3.537593        -2.853494         1.740635
 H        -2.945208        -2.707981        -1.037377
