19
Iteration:  2156
 C         0.955822        -1.430695        -0.619844
 C        -0.333752        -0.879770        -0.189562
 C        -1.345994        -0.239330         0.092897
 C        -2.705440         0.040425         0.586740
 C        -3.163214         1.468114         0.371323
 O        -3.632507        -1.030427         0.099113
 C        -3.290381        -2.252219         0.738452
 C        -2.051256        -2.927493         0.082748
 O        -1.234447        -3.692944         0.477174
 H         0.934444        -2.483108        -1.001478
 H         1.343721        -0.738089        -1.354579
 H         1.720338        -1.444450         0.163740
 H        -2.719323        -0.098849         1.694001
 H        -4.274603         1.578182         0.350843
 H        -2.791610         2.026435         1.194932
 H        -2.659941         1.858179        -0.587960
 H        -3.181003        -2.104402         1.854494
 H        -4.101437        -3.054931         0.645609
 H        -2.010921        -2.499956        -1.012194
