19
Iteration:  3843charge 0 multiplicity 1
 C         1.099369        -1.125177        -0.519950
 C        -0.145303        -0.710183        -0.032621
 C        -1.096260        -0.293712         0.585097
 C        -2.505781        -0.098877         1.015775
 C        -2.879636         1.401794         0.940540
 O        -3.453048        -0.945158         0.276157
 C        -3.281999        -2.310137         0.535512
 C        -2.401018        -2.868567        -0.547738
 O        -2.036176        -3.999850        -0.503915
 H         1.430833        -2.123450        -0.164812
 H         0.964018        -1.105017        -1.621552
 H         1.697561        -0.343719        -0.189117
 H        -2.487147        -0.432240         2.134374
 H        -2.702910         1.697229         1.960479
 H        -2.336080         2.014657         0.212376
 H        -3.942324         1.518789         0.660693
 H        -2.701733        -2.409717         1.484156
 H        -4.339358        -2.758709         0.612070
 H        -2.068013        -2.075865        -1.267994
