19
Iteration:  3547charge 0 multiplicity 1
 C         1.050139        -0.926455        -0.618250
 C        -0.149381        -0.419866         0.033939
 C        -1.178771        -0.356757         0.696772
 C        -2.523469        -0.005220         1.052439
 C        -2.980512         1.401411         0.675712
 O        -3.216133        -0.902877         0.208711
 C        -3.030487        -2.266162         0.590811
 C        -2.226063        -3.092459        -0.382297
 O        -2.386113        -4.328783        -0.385502
 H         0.761893        -2.003789        -0.879615
 H         1.051616        -0.344047        -1.604200
 H         1.977493        -0.854061        -0.030192
 H        -2.820983        -0.017794         2.134593
 H        -2.147002         2.135918         0.646318
 H        -3.325820         1.440674        -0.412510
 H        -3.846896         1.729660         1.234397
 H        -2.642797        -2.511575         1.566463
 H        -3.994779        -2.726183         0.531910
 H        -1.754382        -2.360431        -1.039572
