19
Iteration:  3409
 C         1.311074        -0.751715        -0.317981
 C        -0.063372        -0.554622        -0.070532
 C        -1.272241        -0.542773         0.114761
 C        -2.480341        -0.097948         0.816524
 C        -2.800099         1.353790         0.386098
 O        -3.533889        -1.005788         0.653272
 C        -3.279895        -2.334265         0.964955
 C        -2.754462        -3.096690        -0.310823
 O        -1.942464        -3.983340        -0.552336
 H         1.940219         0.104210        -0.121283
 H         1.800767        -1.593526         0.081488
 H         1.504485        -1.013105        -1.409187
 H        -2.193839         0.125845         1.881891
 H        -1.839074         1.800243         0.667191
 H        -2.968684         1.601377        -0.668621
 H        -3.621691         1.624758         1.055672
 H        -2.501417        -2.444982         1.729658
 H        -4.264185        -2.664302         1.346393
 H        -3.012329        -2.627495        -1.269677
