19
Iteration:  3374
 C         1.461726        -0.842736        -0.482077
 C         0.047336        -0.676344        -0.034499
 C        -1.086819        -0.405429         0.334682
 C        -2.470157        -0.068942         0.864638
 C        -3.033388         1.204581         0.345694
 O        -3.565807        -0.989885         0.673991
 C        -3.307558        -2.300079         0.795240
 C        -2.811578        -3.030343        -0.468269
 O        -1.939204        -3.893701        -0.341114
 H         2.148440        -0.448350         0.308078
 H         1.613011        -1.880564        -0.635791
 H         1.459345        -0.208138        -1.342774
 H        -2.414142        -0.037270         1.973697
 H        -2.235939         1.855287        -0.019907
 H        -3.873032         1.170260        -0.400148
 H        -3.322403         1.825337         1.143976
 H        -2.426051        -2.486828         1.495334
 H        -4.143063        -2.847587         1.253965
 H        -3.162141        -2.571561        -1.452570
