19
Iteration:   459charge 0 multiplicity 1
 C         1.530379         0.294503         0.011249
 C         0.034204         0.421391         0.047108
 C        -1.096876         0.032000         0.297821
 C        -2.551373        -0.225401         0.262282
 C        -3.170615         0.933735        -0.687194
 O        -2.841161        -1.485516        -0.410747
 C        -2.251380        -2.424313         0.394828
 C        -3.050295        -3.793924         0.436341
 O        -3.312122        -4.447735         1.412715
 H         1.656726        -0.293952        -0.910091
 H         2.151554         1.196235         0.011623
 H         1.809061        -0.218658         0.934994
 H        -3.089040        -0.413720         1.213416
 H        -4.248282         1.234923        -0.406187
 H        -2.435729         1.711052        -0.928396
 H        -3.182021         0.415886        -1.646459
 H        -1.339329        -2.878995        -0.174237
 H        -1.691037        -2.026861         1.305673
 H        -3.377317        -3.867117        -0.631285
