19
Iteration:  2974
 C         1.154445        -1.004024        -0.780369
 C        -0.107225        -0.511889        -0.272276
 C        -1.115118        -0.236005         0.315540
 C        -2.466174         0.070750         0.941941
 C        -3.099330         1.434632         0.518794
 O        -3.474690        -0.958222         0.441616
 C        -3.260287        -2.328141         0.719534
 C        -2.290737        -3.070071        -0.190419
 O        -1.989421        -4.235779        -0.006382
 H         0.761011        -1.927753        -1.255765
 H         1.693521        -0.215743        -1.423545
 H         1.707345        -1.396816         0.124350
 H        -2.345129        -0.110826         2.038910
 H        -4.011685         1.616113         1.075468
 H        -2.412870         2.261808         0.662891
 H        -3.364588         1.264781        -0.526841
 H        -3.046305        -2.613557         1.794363
 H        -4.246753        -2.753461         0.451140
 H        -1.930524        -2.481321        -1.018516
