19
Iteration:  3455charge 0 multiplicity 1
 C         1.414930        -0.736222        -0.388934
 C        -0.054022        -0.665226        -0.209051
 C        -1.182729        -0.463264         0.223765
 C        -2.462416        -0.100796         0.854944
 C        -2.922035         1.285337         0.508346
 O        -3.567034        -0.952726         0.693720
 C        -3.188174        -2.365695         0.800154
 C        -2.621865        -2.944936        -0.513119
 O        -2.164254        -4.040529        -0.338690
 H         1.650696         0.001732        -1.119061
 H         1.888549        -0.444445         0.564577
 H         1.870001        -1.746133        -0.611829
 H        -2.145969        -0.211737         1.940797
 H        -2.624954         2.042688         1.225670
 H        -2.462901         1.653145        -0.374889
 H        -4.047909         1.239478         0.346173
 H        -2.423564        -2.467826         1.523691
 H        -4.103224        -2.926824         1.067715
 H        -2.558985        -2.559784        -1.645631
