19
Iteration:  3851charge 0 multiplicity 1
 C         1.054085        -1.187038        -0.538316
 C        -0.193620        -0.710092         0.032578
 C        -1.177592        -0.238360         0.566711
 C        -2.501622        -0.059327         1.001754
 C        -2.877155         1.428474         1.021098
 O        -3.428933        -0.942269         0.233671
 C        -3.197487        -2.304468         0.560565
 C        -2.429976        -2.879021        -0.541181
 O        -2.019829        -4.040067        -0.526111
 H         1.297411        -2.008806         0.100199
 H         1.063055        -1.315418        -1.634513
 H         1.877469        -0.353801        -0.561847
 H        -2.366622        -0.364747         2.031786
 H        -2.764743         1.996215         1.940066
 H        -2.293452         1.946067         0.319627
 H        -3.933782         1.462778         0.627985
 H        -2.587177        -2.529685         1.389999
 H        -4.088869        -2.822346         0.328357
 H        -1.987312        -2.091472        -1.202749
