19
Iteration:  2762charge 0 multiplicity 1
 C         1.443939        -0.278171        -0.656524
 C         0.001081        -0.452770        -0.211218
 C        -1.110202        -0.218710         0.221552
 C        -2.426603         0.058717         0.945809
 C        -2.998697         1.067375        -0.067673
 O        -3.442204        -1.002436         0.828607
 C        -2.890774        -2.359169         0.982310
 C        -2.776063        -3.261941        -0.212222
 O        -2.566745        -4.469513        -0.138234
 H         2.132417        -0.967318        -0.112965
 H         1.583988        -0.671768        -1.629823
 H         1.940663         0.726396        -0.437358
 H        -2.132733         0.325401         1.989911
 H        -4.044699         1.272348         0.020734
 H        -2.470882         2.070505         0.042246
 H        -2.916375         0.744330        -1.049960
 H        -1.808081        -2.243104         1.300023
 H        -3.219356        -2.832250         1.878348
 H        -2.701942        -2.753504        -1.141120
