19
Iteration:   477
 C         1.480354         0.350656        -0.000224
 C         0.046632         0.421326         0.086746
 C        -1.085110         0.060151         0.226069
 C        -2.477640        -0.088932         0.161987
 C        -3.162518         0.938510        -0.743851
 O        -2.839122        -1.434097        -0.250490
 C        -2.179089        -2.656885         0.411570
 C        -3.156030        -3.821129         0.408629
 O        -3.305476        -4.509155         1.363034
 H         1.820832        -0.505882        -0.579166
 H         1.933938         1.257429        -0.458795
 H         1.975837         0.277886         1.103106
 H        -2.885056         0.173386         1.144826
 H        -3.967238         1.327156        -0.119198
 H        -2.412491         1.690939        -0.969344
 H        -3.515722         0.498741        -1.679411
 H        -1.155778        -2.873934         0.190227
 H        -2.292169        -2.351569         1.490908
 H        -3.654197        -4.067944        -0.588943
