19
Iteration:  2610charge 0 multiplicity 1
 C         1.388738        -0.446243        -0.574550
 C         0.030877        -0.249799        -0.108410
 C        -1.112264        -0.047814         0.267790
 C        -2.494631         0.063962         0.676067
 C        -3.260061         1.186232        -0.146468
 O        -3.216727        -1.205276         0.646031
 C        -2.489161        -2.419475         1.089097
 C        -2.481808        -3.307329        -0.126184
 O        -3.018010        -4.394826        -0.026458
 H         1.683101         0.296517        -1.232229
 H         2.001926        -0.546906         0.320871
 H         1.455648        -1.461903        -1.059720
 H        -2.444429         0.422967         1.705444
 H        -4.318685         1.067191        -0.018596
 H        -2.969809         2.194085         0.282953
 H        -2.970423         1.151382        -1.162126
 H        -1.530820        -2.160373         1.492801
 H        -2.994262        -2.982112         1.849827
 H        -2.004905        -2.947225        -1.092747
