19
Iteration:   589charge 0 multiplicity 1
 C         1.736698         0.714909        -0.046696
 C         0.283306         0.301622        -0.215290
 C        -0.869068        -0.101103        -0.026947
 C        -2.341780        -0.036439         0.190956
 C        -3.071211         0.927616        -0.829091
 O        -2.934946        -1.447389         0.033742
 C        -2.822547        -2.410220         1.092548
 C        -3.465384        -3.826254         0.662653
 O        -3.067718        -4.949675         0.727791
 H         1.844829         1.163635         0.972662
 H         2.309561        -0.216167        -0.176925
 H         2.147312         1.623122        -0.677265
 H        -2.619537         0.335308         1.205860
 H        -4.124213         0.656696        -1.140263
 H        -3.244166         1.918309        -0.336398
 H        -2.593317         1.042689        -1.811069
 H        -1.809452        -2.404244         1.336880
 H        -3.531101        -2.184382         1.966454
 H        -4.587309        -3.671731         0.462793
