19
Iteration:  4303
 C         1.465854        -0.763831        -0.090647
 C         0.186601        -0.605879         0.521340
 C        -0.954171        -0.340953         0.860174
 C        -2.401508        -0.107184         1.108172
 C        -2.801459         1.414306         0.905578
 O        -3.355023        -0.901819         0.311070
 C        -3.280766        -2.352217         0.379256
 C        -2.714083        -3.056573        -0.925348
 O        -2.758130        -4.258629        -1.119133
 H         1.370280        -0.698786        -1.177625
 H         2.063022         0.139859         0.117124
 H         2.046338        -1.658241         0.069436
 H        -2.735547        -0.402221         2.051342
 H        -2.060087         2.219042         1.232020
 H        -2.942489         1.565651        -0.175463
 H        -3.741987         1.665133         1.494980
 H        -2.602298        -2.478066         1.204601
 H        -4.336541        -2.841817         0.454647
 H        -2.115447        -2.403011        -1.556299
