19
Iteration:  3699
 C         1.387102        -0.715582        -0.321079
 C        -0.004174        -0.708311        -0.074217
 C        -1.171826        -0.491369         0.190313
 C        -2.474100        -0.210598         0.819336
 C        -2.666863         1.313801         0.815519
 O        -3.669285        -0.892225         0.507370
 C        -3.497986        -2.278938         0.627606
 C        -2.595559        -2.976260        -0.570768
 O        -2.026202        -4.058008        -0.347189
 H         1.591226         0.290604        -0.625274
 H         2.091486        -0.893215         0.517987
 H         1.567074        -1.457983        -1.076324
 H        -2.382481        -0.346704         1.889957
 H        -1.792718         1.966736         0.979859
 H        -3.164177         1.523703        -0.127689
 H        -3.399097         1.659330         1.600789
 H        -2.813202        -2.601755         1.463279
 H        -4.483754        -2.804318         0.478916
 H        -2.656355        -2.527960        -1.600974
