19
Iteration:  2346
 C         1.343138        -0.385893        -0.790461
 C         0.000314        -0.768399        -0.233081
 C        -1.110437        -0.406367         0.202611
 C        -2.430488        -0.060437         0.707910
 C        -2.996930         1.285100         0.290347
 O        -3.451868        -0.972591         0.133591
 C        -3.598035        -2.323414         0.646017
 C        -2.449290        -3.237197         0.101044
 O        -1.948938        -4.185158         0.633835
 H         1.149274         0.378006        -1.552649
 H         1.877248         0.008042         0.052155
 H         1.961801        -1.124823        -1.232854
 H        -2.374060        -0.238139         1.777171
 H        -4.068681         1.346849         0.561769
 H        -2.515389         2.184637         0.696892
 H        -2.993883         1.317397        -0.781777
 H        -3.791759        -2.440407         1.736476
 H        -4.605575        -2.467045         0.205712
 H        -2.157018        -2.895563        -0.900690
