19
Iteration:  3399
 C         1.394698        -0.765626        -0.383420
 C        -0.037406        -0.589988        -0.008244
 C        -1.248910        -0.513741         0.124135
 C        -2.448716        -0.054906         0.827337
 C        -2.825794         1.335276         0.387237
 O        -3.573803        -1.014365         0.652593
 C        -3.249614        -2.370892         0.932430
 C        -2.774281        -3.073349        -0.369172
 O        -1.942305        -3.951751        -0.483557
 H         2.001577        -0.005621         0.051972
 H         1.584501        -1.705641         0.070438
 H         1.316596        -0.705830        -1.504255
 H        -2.293351        -0.218699         1.900287
 H        -1.959665         2.009559         0.378773
 H        -3.265721         1.317606        -0.617134
 H        -3.521462         1.944689         1.014418
 H        -2.621153        -2.489087         1.791208
 H        -4.175433        -2.947336         1.166948
 H        -3.369821        -2.544591        -1.173817
