19
Iteration:  2126
 C         1.006784        -1.356552        -0.565990
 C        -0.257252        -0.791247        -0.278019
 C        -1.291825        -0.461432         0.260323
 C        -2.561870         0.084376         0.682023
 C        -3.310223         1.310517         0.156354
 O        -3.621606        -0.925789         0.335360
 C        -3.165476        -2.199057         0.693461
 C        -2.163471        -2.921096        -0.158712
 O        -1.402325        -3.673299         0.492089
 H         0.989332        -2.121050        -1.411321
 H         1.726953        -0.586091        -0.808841
 H         1.442658        -1.898778         0.237321
 H        -2.510600         0.139838         1.793677
 H        -4.289125         0.942952         0.018955
 H        -3.253531         2.138250         0.852471
 H        -2.922678         1.659477        -0.782326
 H        -2.639663        -2.047318         1.639173
 H        -3.941603        -2.947735         0.907794
 H        -2.124892        -2.860579        -1.229423
