19
Iteration:   466charge 0 multiplicity 1
 C         1.487573         0.309334         0.007090
 C         0.046557         0.472853         0.045916
 C        -1.069079        -0.002114         0.284528
 C        -2.551093        -0.138210         0.230206
 C        -3.149425         0.917199        -0.711240
 O        -2.830063        -1.470439        -0.373051
 C        -2.207449        -2.501680         0.414028
 C        -3.087149        -3.789859         0.407759
 O        -3.322556        -4.496909         1.412347
 H         1.736841        -0.436644        -0.756758
 H         2.045987         1.247546        -0.202796
 H         1.833476        -0.118939         1.046440
 H        -2.975763        -0.125472         1.235615
 H        -4.065246         1.367476        -0.327603
 H        -2.469038         1.745480        -0.869894
 H        -3.422208         0.476335        -1.684363
 H        -1.322815        -2.725041        -0.151486
 H        -1.896707        -2.288728         1.484663
 H        -3.528985        -4.093894        -0.594557
