19
Iteration:  4605
 C         1.445106        -0.695963        -0.001513
 C         0.217955        -0.309317         0.706276
 C        -0.895801        -0.245508         1.176428
 C        -2.393256        -0.187187         1.089253
 C        -2.989926         1.261850         0.877607
 O        -3.011378        -1.059757         0.212608
 C        -2.487424        -2.376428         0.234610
 C        -3.019847        -3.041155        -1.046446
 O        -3.471714        -4.183937        -1.208551
 H         1.254809        -1.737531        -0.474084
 H         1.622336         0.076533        -0.735241
 H         2.286208        -0.789801         0.724239
 H        -2.727082        -0.532118         2.151415
 H        -2.434824         2.085269         1.514638
 H        -2.794540         1.536607        -0.171193
 H        -4.087723         1.092575         1.057764
 H        -1.400863        -2.307665         0.183472
 H        -2.793615        -3.038385         1.087838
 H        -2.591774        -2.561672        -1.950765
