19
Iteration:    95charge 0 multiplicity 1
 C         1.738422         0.285722        -0.141696
 C         0.256035         0.528205        -0.226663
 C        -0.900352         0.077622        -0.048610
 C        -2.329144        -0.164073         0.053452
 C        -3.134381         0.510559        -1.052740
 O        -2.857780        -1.472575        -0.076429
 C        -2.776065        -2.202500         1.133595
 C        -3.578636        -3.570257         1.071667
 O        -3.039873        -4.643520         0.935507
 H         2.329659         1.081916        -0.560780
 H         2.092064        -0.017696         0.881426
 H         1.941231        -0.700034        -0.735140
 H        -2.740649         0.181510         1.105879
 H        -4.035838         0.961797        -0.655819
 H        -2.452560         1.306206        -1.580870
 H        -3.484613        -0.210567        -1.880338
 H        -1.746189        -2.606300         1.259751
 H        -3.012090        -1.436016         1.939436
 H        -4.690270        -3.508026         0.947068
