19
Iteration:  3457
 C         1.378168        -0.730207        -0.404212
 C        -0.036617        -0.666054        -0.180595
 C        -1.169391        -0.463884         0.224552
 C        -2.440473        -0.083208         0.850781
 C        -2.940404         1.280330         0.516840
 O        -3.565921        -0.959923         0.691478
 C        -3.194957        -2.349632         0.796591
 C        -2.622268        -2.952148        -0.524924
 O        -2.169399        -4.043958        -0.341666
 H         1.689209        -0.056281        -1.222284
 H         1.948435        -0.455771         0.568192
 H         1.841617        -1.723340        -0.534787
 H        -2.109384        -0.145758         1.922562
 H        -2.654864         2.039357         1.266758
 H        -2.436580         1.634267        -0.411917
 H        -4.049537         1.185892         0.372617
 H        -2.446208        -2.497662         1.550359
 H        -4.106944        -2.887603         1.034522
 H        -2.455236        -2.653921        -1.580866
