19
Iteration:   643
 C         1.537796         0.536672        -0.284984
 C         0.220347         0.220363         0.169433
 C        -0.947634        -0.117736         0.233989
 C        -2.411717        -0.211121         0.260194
 C        -3.078797         0.807566        -0.671817
 O        -2.809052        -1.496059        -0.229579
 C        -2.851987        -2.290584         1.019646
 C        -3.407525        -3.592501         0.616002
 O        -2.882564        -4.665692         0.708152
 H         1.664716         1.577085        -0.532777
 H         2.357699         0.264952         0.360044
 H         1.661454        -0.104907        -1.221157
 H        -2.722614        -0.036395         1.335292
 H        -4.160242         0.560611        -0.744422
 H        -2.854668         1.881555        -0.591028
 H        -2.657755         0.691698        -1.672130
 H        -1.829530        -2.280160         1.409111
 H        -3.584333        -1.909737         1.754128
 H        -4.377801        -3.525224         0.068388
