19
Iteration:  3086
 C         1.134755        -0.950314        -0.800313
 C        -0.090935        -0.562022        -0.193621
 C        -1.172158        -0.527340         0.369692
 C        -2.505000        -0.107898         0.907265
 C        -2.852842         1.247748         0.430289
 O        -3.556103        -0.925533         0.548815
 C        -3.527465        -2.284181         0.752186
 C        -2.468584        -2.947193        -0.208688
 O        -1.699477        -3.873107        -0.032787
 H         2.130561        -0.999659        -0.244968
 H         1.039145        -1.986670        -1.303417
 H         1.429936        -0.342848        -1.635909
 H        -2.467207        -0.211869         2.021138
 H        -3.871389         1.381649         0.077616
 H        -2.614501         1.952003         1.253014
 H        -2.270504         1.551915        -0.398954
 H        -3.415138        -2.583487         1.805855
 H        -4.394896        -2.779357         0.392888
 H        -2.523431        -2.817568        -1.375728
