19
Iteration:   199charge 0 multiplicity 1
 C         1.649183         0.500360        -0.230152
 C         0.239379         0.352157        -0.033548
 C        -0.944663         0.069636         0.147775
 C        -2.410714        -0.105577         0.125914
 C        -2.884504         0.637588        -1.070228
 O        -3.142120        -1.381599         0.004824
 C        -2.534392        -2.465922         0.696563
 C        -3.476788        -3.601599         0.879050
 O        -3.131297        -4.746915         1.146601
 H         2.008777        -0.514391        -0.635543
 H         1.927059         1.333603        -0.901190
 H         2.174708         0.670444         0.674947
 H        -2.912558         0.253007         1.118796
 H        -2.076118         0.640378        -1.804873
 H        -3.816314         0.366030        -1.509827
 H        -2.964358         1.651296        -0.772348
 H        -1.493251        -2.756786         0.444190
 H        -2.464990        -2.080261         1.781558
 H        -4.526679        -3.376389         0.944969
