19
Iteration:  3847charge 0 multiplicity 1
 C         1.071723        -1.162451        -0.528608
 C        -0.172794        -0.710646        -0.000851
 C        -1.128550        -0.266769         0.579070
 C        -2.510200        -0.081567         1.009124
 C        -2.880812         1.411525         0.983294
 O        -3.442591        -0.954510         0.248383
 C        -3.238475        -2.307151         0.550083
 C        -2.425299        -2.875653        -0.546106
 O        -2.028906        -4.014351        -0.511478
 H         1.331912        -2.110097         0.034937
 H         1.005248        -1.134100        -1.625794
 H         1.801984        -0.260945        -0.406386
 H        -2.331068        -0.368741         2.063244
 H        -2.698099         1.859412         2.012601
 H        -2.302078         2.043970         0.209910
 H        -3.890092         1.474917         0.608230
 H        -2.537644        -2.449660         1.455772
 H        -4.257817        -2.785599         0.386126
 H        -2.009703        -2.053300        -1.183912
