19
Iteration:  2897charge 0 multiplicity 1
 C         1.128159        -0.940331        -0.671630
 C        -0.122420        -0.454147        -0.133759
 C        -1.179989        -0.102025         0.154059
 C        -2.476792         0.044699         0.727393
 C        -3.086304         1.432694         0.585298
 O        -3.486292        -0.971909         0.293487
 C        -2.937501        -2.202932         0.926535
 C        -2.370721        -3.222044        -0.081729
 O        -2.167458        -4.435009        -0.106838
 H         1.447559        -0.369355        -1.528675
 H         1.845845        -0.863669         0.204077
 H         0.962125        -2.052484        -0.932195
 H        -2.235649        -0.050403         1.806828
 H        -4.087048         1.336265         0.991063
 H        -2.470091         2.157092         0.964989
 H        -3.354583         1.549298        -0.501481
 H        -2.002002        -1.888072         1.459183
 H        -3.710941        -2.705694         1.450985
 H        -2.235641        -2.481168        -1.066223
