19
Iteration:  2707charge 0 multiplicity 1
 C         1.533902        -0.272136        -0.621512
 C         0.162915        -0.184302        -0.042889
 C        -1.023079        -0.251530         0.119618
 C        -2.377437         0.008892         0.702991
 C        -3.178053         0.999738        -0.143561
 O        -3.372556        -1.048437         0.845009
 C        -2.844494        -2.379837         1.192898
 C        -2.811714        -3.296050        -0.092644
 O        -2.755820        -4.487806        -0.270036
 H         1.747461        -1.254396        -1.096597
 H         1.617194         0.590086        -1.244501
 H         2.195544        -0.098718         0.283553
 H        -2.067303         0.341817         1.728858
 H        -3.885521         1.513964         0.481613
 H        -2.492695         1.765583        -0.624153
 H        -3.669635         0.437811        -0.881487
 H        -1.728607        -2.281238         1.548813
 H        -3.362109        -2.649937         2.121336
 H        -2.709535        -2.500894        -0.970547
