19
Iteration:  3861
 C         1.025894        -1.224881        -0.558057
 C        -0.185764        -0.691400         0.062030
 C        -1.207612        -0.211950         0.498892
 C        -2.530319        -0.017164         1.065945
 C        -2.916654         1.460650         1.040066
 O        -3.403020        -0.879331         0.255071
 C        -3.153170        -2.290203         0.532860
 C        -2.315129        -2.924684        -0.557619
 O        -2.016650        -4.087957        -0.567002
 H         1.477262        -2.005325         0.063782
 H         0.834370        -1.856097        -1.423786
 H         1.932731        -0.487212        -0.596525
 H        -2.727186        -0.443309         2.010464
 H        -2.858744         1.956124         2.025141
 H        -2.287655         1.943321         0.328351
 H        -3.990733         1.574276         0.735672
 H        -2.842181        -2.513305         1.554028
 H        -4.097499        -2.798384         0.653813
 H        -2.170082        -2.288342        -1.475184
