19
Iteration:  3101charge 0 multiplicity 1
 C         1.193279        -1.019862        -0.821895
 C        -0.045327        -0.497530        -0.157901
 C        -1.191612        -0.654805         0.279873
 C        -2.432006        -0.141567         0.854570
 C        -2.906838         1.356284         0.480088
 O        -3.694077        -0.927335         0.540360
 C        -3.399920        -2.359460         0.738253
 C        -2.475017        -2.889251        -0.246637
 O        -1.721556        -3.856457         0.011404
 H         2.029593        -0.788854        -0.135500
 H         1.104379        -2.071901        -0.696631
 H         1.351803        -0.544216        -1.845428
 H        -2.233137        -0.195779         1.973723
 H        -4.006860         1.210612         0.357896
 H        -2.770412         2.051067         1.285075
 H        -2.371189         1.805290        -0.453260
 H        -3.210253        -2.648150         1.782450
 H        -4.491760        -2.732794         0.537860
 H        -2.497619        -2.263261        -1.227323
