19
Iteration:  2824charge 0 multiplicity 1
 C         1.321543        -0.649026        -0.780072
 C         0.016413        -0.365596        -0.043610
 C        -1.074452        -0.022512         0.306305
 C        -2.452965         0.087908         0.938929
 C        -3.132540         1.238670         0.144618
 O        -3.336619        -1.011176         0.517204
 C        -2.969244        -2.295891         1.067213
 C        -2.731065        -3.341853        -0.153973
 O        -2.337388        -4.477646        -0.205919
 H         2.159146        -0.163805        -0.158720
 H         1.449999        -1.780861        -0.741892
 H         1.302598        -0.372889        -1.822887
 H        -2.441223         0.235797         2.045235
 H        -4.200736         1.352475         0.421705
 H        -2.474501         2.189783         0.240762
 H        -3.042958         0.961567        -0.948389
 H        -1.976989        -2.143609         1.481932
 H        -3.742299        -2.771978         1.774028
 H        -2.829053        -2.715958        -1.102789
