19
Iteration:  4596
 C         1.376855        -0.693896        -0.009415
 C         0.228408        -0.357220         0.727845
 C        -0.919225        -0.318409         1.129348
 C        -2.391750        -0.090950         1.111437
 C        -2.971644         1.253088         0.889860
 O        -2.987636        -1.052976         0.194548
 C        -2.504425        -2.362819         0.255302
 C        -2.914292        -3.123589        -1.067342
 O        -3.488076        -4.178970        -1.201617
 H         1.412142        -1.452047        -0.810026
 H         1.823491         0.142196        -0.588726
 H         2.216893        -0.865712         0.729503
 H        -2.807415        -0.386417         2.173987
 H        -2.555386         2.108883         1.528377
 H        -3.016666         1.698146        -0.077723
 H        -4.076129         1.299084         1.157620
 H        -1.462322        -2.297295         0.203308
 H        -2.879882        -2.950559         1.140972
 H        -2.762117        -2.466312        -1.902389
