19
Iteration:  2504
 C         1.370017        -0.419367        -0.588403
 C         0.031067        -0.147175        -0.277719
 C        -1.088974         0.068705         0.228913
 C        -2.443563         0.000667         0.639678
 C        -3.124733         1.295597         0.164070
 O        -3.208891        -1.146563         0.249594
 C        -2.885115        -2.316066         1.005439
 C        -2.511286        -3.479575         0.090528
 O        -2.807337        -4.643491         0.149090
 H         1.816565        -0.875023         0.304059
 H         1.369141        -1.273050        -1.302461
 H         1.916934         0.408961        -1.073534
 H        -2.431756        -0.001269         1.749399
 H        -4.161644         1.198333         0.474316
 H        -2.554528         2.180096         0.640334
 H        -3.145353         1.304261        -0.897740
 H        -1.932701        -2.027909         1.590739
 H        -3.821201        -2.498523         1.607266
 H        -1.824919        -3.027376        -0.706054
