19
Iteration:  4908
 C         1.827161        -0.117251         0.422767
 C         0.469521        -0.263107         0.823060
 C        -0.738607        -0.198594         0.934806
 C        -2.243738        -0.442116         1.100601
 C        -3.015147         0.842740         1.146144
 O        -2.746917        -1.100888        -0.040592
 C        -2.538835        -2.522931        -0.076377
 C        -3.494184        -3.001977        -1.173348
 O        -4.027109        -4.087404        -1.144671
 H         2.609906        -0.765099         0.830422
 H         1.804834        -0.177538        -0.691706
 H         2.001821         0.945205         0.678799
 H        -2.508543        -1.098544         2.020294
 H        -2.476920         1.747706         1.554365
 H        -3.050880         1.061046         0.082914
 H        -4.006129         0.573550         1.649907
 H        -1.411549        -2.637543        -0.235921
 H        -2.869265        -3.068833         0.877741
 H        -3.781925        -2.330406        -2.058985
