19
Iteration:  1631charge 0 multiplicity 1
 C         1.723845         0.500545        -0.219757
 C         0.316408         0.215648         0.133068
 C        -0.942985         0.105098         0.256367
 C        -2.354091        -0.162918         0.536938
 C        -3.343432         0.849196        -0.170870
 O        -2.905284        -1.358521        -0.042899
 C        -2.188217        -2.607068         0.052086
 C        -3.332149        -3.661980         0.210964
 O        -3.528981        -4.614250         1.013454
 H         2.394403        -0.083427         0.378808
 H         1.799495         0.203596        -1.240669
 H         1.998064         1.565784        -0.127575
 H        -2.495688        -0.271675         1.626558
 H        -3.095665         1.906486        -0.246448
 H        -3.605266         0.272348        -1.113477
 H        -4.249573         0.994995         0.479376
 H        -1.780886        -2.725098        -0.944649
 H        -1.342836        -2.809861         0.707056
 H        -4.094815        -3.573365        -0.684565
