19
Iteration:  1139charge 0 multiplicity 1
 C         1.373459        -0.166880        -0.084590
 C         0.001469        -0.140902         0.457163
 C        -1.159907         0.152567         0.125145
 C        -2.567164         0.095752         0.251610
 C        -3.382839         1.040477        -0.618177
 O        -3.047900        -1.245561         0.013156
 C        -2.237666        -2.280326         0.604097
 C        -3.072601        -3.559686         0.478488
 O        -2.631613        -4.661885         0.550163
 H         2.073283         0.349008         0.570952
 H         1.623396        -1.258354         0.097060
 H         1.589210         0.089036        -1.107693
 H        -2.588894         0.210111         1.367733
 H        -4.089554         1.706762        -0.085912
 H        -2.699779         1.818164        -1.021609
 H        -3.727416         0.342050        -1.411304
 H        -1.289213        -2.337767         0.037232
 H        -2.141381        -1.939312         1.652567
 H        -4.184934        -3.374800         0.255141
