19
Iteration:  1248
 C         1.635619         0.133084         0.148407
 C         0.203358        -0.049112         0.129329
 C        -1.023166        -0.037547        -0.034219
 C        -2.484202         0.035586         0.276176
 C        -3.393837         1.124393        -0.413739
 O        -3.202094        -1.245467         0.193066
 C        -2.403795        -2.360272         0.338323
 C        -3.216591        -3.672193         0.279574
 O        -2.808454        -4.752253         0.753161
 H         2.025965        -0.077187        -0.878590
 H         1.943807         1.246331         0.359997
 H         2.175477        -0.502514         0.904869
 H        -2.548234         0.243252         1.351864
 H        -4.148049         0.566343        -0.942187
 H        -3.886714         1.721596         0.377348
 H        -2.838216         1.890126        -1.036739
 H        -1.713426        -2.411513        -0.581876
 H        -1.580900        -2.382719         1.097517
 H        -3.931565        -3.648318        -0.538575
