19
Iteration:  4678charge 0 multiplicity 1
 C         1.789322        -0.499335         0.289727
 C         0.351248        -0.506217         0.587035
 C        -0.839328        -0.237193         0.753702
 C        -2.364409        -0.193645         1.117955
 C        -3.041540         1.204941         0.948205
 O        -3.151404        -1.075229         0.288804
 C        -2.570507        -2.372426         0.232162
 C        -3.317856        -3.030615        -1.010522
 O        -3.425116        -4.206676        -1.324103
 H         2.186619        -0.712498         1.280575
 H         1.810155        -1.331762        -0.487596
 H         2.290019         0.373373        -0.146078
 H        -2.351637        -0.490048         2.208750
 H        -2.673219         1.875258         1.740515
 H        -2.812458         1.707772        -0.015952
 H        -4.091375         1.095757         1.095704
 H        -1.460859        -2.402497         0.103401
 H        -2.764000        -2.954379         1.167561
 H        -3.867868        -2.244659        -1.528578
