19
Iteration:  4177
 C         1.338455        -1.306854        -0.214865
 C         0.059454        -0.645681         0.274052
 C        -1.058816        -0.282803         0.643700
 C        -2.480194         0.016828         1.040987
 C        -3.046554         1.377700         0.853907
 O        -3.495558        -0.924830         0.586096
 C        -3.044951        -2.309834         0.501849
 C        -2.477129        -2.792899        -0.829680
 O        -2.424879        -3.995223        -1.056449
 H         2.096364        -1.359937         0.610195
 H         1.105368        -2.394856        -0.397715
 H         1.920978        -0.934579        -1.105056
 H        -2.516028        -0.192079         2.075820
 H        -2.735155         2.025452         1.639699
 H        -2.903610         1.965875        -0.080381
 H        -4.147684         1.141430         0.970616
 H        -2.383678        -2.608732         1.339512
 H        -4.010429        -2.831687         0.580887
 H        -2.035149        -1.955665        -1.457502
