19
Iteration:  4176charge 0 multiplicity 1
 C         1.341178        -1.306018        -0.220886
 C         0.057272        -0.649750         0.270453
 C        -1.062832        -0.286640         0.654193
 C        -2.483156         0.012220         1.036670
 C        -3.043060         1.383592         0.854081
 O        -3.493553        -0.926495         0.585659
 C        -3.044716        -2.305608         0.509952
 C        -2.475971        -2.791258        -0.837655
 O        -2.420839        -3.990303        -1.053960
 H         2.083260        -1.357048         0.630648
 H         1.102507        -2.415115        -0.432552
 H         1.941273        -0.937180        -1.082421
 H        -2.565863        -0.211432         2.055359
 H        -2.709470         2.037144         1.624685
 H        -2.938309         1.960926        -0.071951
 H        -4.154509         1.172750         0.955248
 H        -2.428356        -2.622465         1.355026
 H        -3.965007        -2.859402         0.613028
 H        -2.052048        -1.965596        -1.466131
