19
Iteration:   920
 C         1.410300        -0.081903        -0.397812
 C         0.081223        -0.155715         0.207551
 C        -1.144000        -0.073261         0.436564
 C        -2.688581        -0.019938         0.360810
 C        -3.151897         1.086862        -0.639780
 O        -3.072828        -1.312028        -0.099741
 C        -2.781389        -2.214668         0.916458
 C        -2.561648        -3.513703         0.164040
 O        -2.745986        -4.516671         0.859579
 H         1.665059         0.960784        -0.658661
 H         2.120315        -0.434646         0.401666
 H         1.524821        -0.821253        -1.136184
 H        -3.270564         0.138022         1.276303
 H        -4.085471         1.642414        -0.211759
 H        -2.267857         1.595589        -1.072732
 H        -3.493466         0.538389        -1.531557
 H        -1.978240        -2.058840         1.591777
 H        -3.722051        -2.378468         1.416645
 H        -2.210167        -3.476624        -0.863836
