19
Iteration:  2389charge 0 multiplicity 1
 C         1.394825        -0.336011        -0.758703
 C         0.057663        -0.107502        -0.134341
 C        -1.056489        -0.486877         0.135172
 C        -2.496782        -0.199788         0.702562
 C        -2.784755         1.206027         0.254041
 O        -3.591703        -0.991128         0.106293
 C        -3.452297        -2.282544         0.767283
 C        -2.541501        -3.330878         0.087398
 O        -2.189288        -4.378156         0.538056
 H         1.209820        -0.666696        -1.815274
 H         2.041184         0.528040        -0.724433
 H         1.873349        -1.086208        -0.174569
 H        -2.572055        -0.247110         1.802004
 H        -3.498149         1.724484         0.932067
 H        -1.861347         1.762004         0.116681
 H        -3.286582         1.143918        -0.713978
 H        -3.123992        -2.106150         1.771285
 H        -4.341202        -2.905443         0.807338
 H        -2.242538        -2.998406        -1.022767
