19
Iteration:  4994charge 0 multiplicity 1
 C         1.825355        -0.110991         0.650334
 C         0.378694        -0.125848         0.690017
 C        -0.848253        -0.300832         0.611269
 C        -2.262478        -0.469474         1.021709
 C        -2.743624         0.861393         1.411436
 O        -2.995090        -1.141624        -0.063015
 C        -2.532713        -2.379124        -0.237549
 C        -3.401200        -3.111029        -1.328597
 O        -3.990063        -4.104484        -0.940269
 H         2.327624         0.877147         0.831744
 H         2.264399        -0.799470         1.341504
 H         2.252673        -0.450986        -0.311024
 H        -2.299527        -1.068793         1.919444
 H        -2.627413         0.983251         2.521397
 H        -2.341092         1.632123         0.829657
 H        -3.802288         1.041486         1.106621
 H        -1.469574        -2.312336        -0.458948
 H        -2.705524        -2.996935         0.605402
 H        -3.719430        -2.540532        -2.288293
