19
Iteration:  2903
 C         1.180199        -0.971633        -0.653068
 C        -0.083479        -0.481633        -0.169270
 C        -1.237115        -0.103768         0.121977
 C        -2.532832         0.038323         0.707977
 C        -3.120381         1.464199         0.606248
 O        -3.443098        -0.982297         0.300639
 C        -2.971931        -2.211241         0.941640
 C        -2.356087        -3.204564        -0.079679
 O        -2.153177        -4.402747        -0.121017
 H         1.339445        -0.548058        -1.677058
 H         1.941514        -0.793121         0.081962
 H         0.938381        -2.027535        -0.853272
 H        -2.334369        -0.084510         1.797200
 H        -4.158199         1.478206         1.021136
 H        -2.418038         2.180626         1.166855
 H        -3.232223         1.692107        -0.457632
 H        -2.138298        -1.942729         1.593179
 H        -3.739969        -2.796401         1.520036
 H        -2.044682        -2.561411        -0.870781
