19
Iteration:  4340charge 0 multiplicity 1
 C         1.535060        -0.581064         0.002018
 C         0.152813        -0.463911         0.354519
 C        -0.965463        -0.463594         0.848104
 C        -2.421856        -0.265164         1.112017
 C        -2.678454         1.255281         0.828827
 O        -3.203898        -0.987844         0.268085
 C        -3.353791        -2.340186         0.423727
 C        -2.899906        -2.939954        -0.888065
 O        -2.798545        -4.143381        -1.053951
 H         1.653474        -1.377579        -0.751511
 H         1.869333         0.410119        -0.344047
 H         2.069061        -0.718406         0.938090
 H        -2.462975        -0.628914         2.172739
 H        -2.253683         1.846358         1.587850
 H        -2.211852         1.459527        -0.179789
 H        -3.735679         1.212638         0.664390
 H        -2.993298        -3.085132         1.296334
 H        -4.496449        -2.482365         0.578423
 H        -2.676320        -2.156294        -1.678032
