19
Iteration:  1009
 C         1.595933         0.151636        -0.173344
 C         0.211677        -0.216742        -0.122832
 C        -1.012415        -0.238793         0.178513
 C        -2.528776         0.007559         0.401754
 C        -3.147555         0.914482        -0.539479
 O        -3.187794        -1.219274         0.019095
 C        -3.168481        -2.232634         0.999528
 C        -2.905613        -3.510916         0.273951
 O        -2.509507        -4.544369         0.681207
 H         1.991857        -0.485438        -0.983606
 H         1.780315         1.192436        -0.518555
 H         2.183225        -0.026054         0.728200
 H        -2.714826         0.233941         1.464377
 H        -4.064323         0.322750        -0.956788
 H        -3.440212         1.964431        -0.223334
 H        -2.564318         1.041142        -1.484753
 H        -2.352421        -2.172064         1.724951
 H        -4.079368        -2.220623         1.622274
 H        -2.965533        -3.353689        -0.861677
