19
Iteration:  4998
 C         1.847574        -0.101082         0.674798
 C         0.366725        -0.146763         0.676882
 C        -0.834179        -0.310297         0.614605
 C        -2.249560        -0.470324         1.017456
 C        -2.762827         0.871432         1.413242
 O        -3.001185        -1.127204        -0.042257
 C        -2.496496        -2.383191        -0.262159
 C        -3.441608        -3.099317        -1.314621
 O        -4.001151        -4.142585        -0.966928
 H         2.300168         0.897599         0.613866
 H         2.306970        -0.774778         1.496934
 H         2.180473        -0.487140        -0.332797
 H        -2.167389        -1.013091         2.036776
 H        -2.673072         1.067147         2.468581
 H        -2.342614         1.859073         0.825641
 H        -3.868640         1.038362         1.160816
 H        -1.387957        -2.267978        -0.595828
 H        -2.772303        -2.989821         0.709938
 H        -3.588046        -2.545190        -2.211638
