19
Iteration:  4648
 C         1.570151        -0.586764         0.198876
 C         0.206088        -0.411366         0.549075
 C        -0.897651        -0.200873         0.969901
 C        -2.331318        -0.146003         1.203254
 C        -3.008740         1.164077         0.839798
 O        -2.963583        -1.097517         0.304680
 C        -2.543439        -2.438109         0.200631
 C        -3.182722        -2.990855        -1.090323
 O        -3.452894        -4.164930        -1.229197
 H         1.879221        -1.561629         0.665937
 H         1.646496        -0.921328        -0.791998
 H         2.318009         0.164217         0.441150
 H        -2.491554        -0.387519         2.240072
 H        -2.786657         1.949371         1.632329
 H        -2.760722         1.774189         0.038040
 H        -4.107941         1.055388         0.848067
 H        -1.442467        -2.603734        -0.089484
 H        -2.838482        -2.987447         1.133973
 H        -3.372523        -2.167169        -1.897585
