19
Iteration:  1467
 C         1.759360         0.660033        -0.237578
 C         0.305046         0.452009        -0.051582
 C        -0.853540         0.084481         0.223467
 C        -2.270893        -0.163660         0.444901
 C        -3.220336         0.828113        -0.168419
 O        -2.786583        -1.465138        -0.043401
 C        -2.695934        -2.588806         0.728331
 C        -3.343512        -3.775719         0.031771
 O        -3.481218        -4.715565         0.736326
 H         2.018191         1.571438        -0.756467
 H         2.388893         0.681596         0.666077
 H         2.177496        -0.137937        -0.887083
 H        -2.393274        -0.168740         1.536900
 H        -4.241580         0.744712         0.219410
 H        -2.710161         1.782497        -0.043916
 H        -3.313628         0.545260        -1.250462
 H        -1.697840        -2.846528         1.150826
 H        -3.377354        -2.592868         1.631598
 H        -3.592298        -3.872560        -1.076248
