19
Iteration:  3732
 C         1.328091        -0.648226        -0.336977
 C        -0.079821        -0.670829        -0.129026
 C        -1.168726        -0.756907         0.351859
 C        -2.386196        -0.247199         0.910389
 C        -2.646035         1.279410         0.755237
 O        -3.578170        -0.915971         0.390602
 C        -3.550925        -2.350480         0.619875
 C        -2.609228        -2.854777        -0.464203
 O        -2.000977        -3.898077        -0.401190
 H         1.620259        -0.344205        -1.298110
 H         1.941035        -0.252497         0.501732
 H         1.838523        -1.581948        -0.441332
 H        -2.517770        -0.557656         1.948730
 H        -1.827263         1.870601         0.318915
 H        -3.450690         1.361702         0.039183
 H        -3.120433         1.713067         1.685358
 H        -3.248011        -2.458538         1.708983
 H        -4.674265        -2.647029         0.544104
 H        -2.784390        -2.290998        -1.423188
