19
Iteration:  3151
 C         1.106497        -1.062862        -0.601547
 C        -0.257465        -0.869690        -0.273217
 C        -1.246295        -0.363046         0.157027
 C        -2.453053         0.055408         0.876736
 C        -2.974084         1.470963         0.658120
 O        -3.549916        -0.931092         0.414137
 C        -3.304526        -2.290653         0.773662
 C        -2.381388        -3.027754        -0.270250
 O        -1.675282        -3.985038        -0.107418
 H         1.695056        -0.105953        -0.747574
 H         1.622427        -1.616215         0.251503
 H         1.126302        -1.474885        -1.576553
 H        -2.243014        -0.015627         1.961453
 H        -3.872123         1.518780         1.283853
 H        -2.251859         2.253132         0.903283
 H        -3.333321         1.653296        -0.348536
 H        -2.916109        -2.312685         1.833032
 H        -4.317292        -2.720541         0.925951
 H        -2.615093        -2.669384        -1.331743
