19
Iteration:  3128
 C         1.230407        -1.068392        -0.707088
 C        -0.133232        -0.791505        -0.204816
 C        -1.253959        -0.337150         0.124774
 C        -2.575812        -0.140808         0.837344
 C        -2.933284         1.326492         0.569990
 O        -3.653770        -0.926134         0.538325
 C        -3.288226        -2.279430         0.748364
 C        -2.399353        -2.903315        -0.246069
 O        -1.744470        -3.880008        -0.033325
 H         1.909844        -0.240747        -0.448015
 H         1.743639        -1.949846        -0.189344
 H         1.195572        -0.998723        -1.792458
 H        -2.250235        -0.280199         1.900291
 H        -4.001932         1.495128         0.687685
 H        -2.358162         1.951551         1.320281
 H        -2.644088         1.678732        -0.376706
 H        -3.070699        -2.511903         1.833717
 H        -4.296049        -2.659217         0.716836
 H        -2.455271        -2.451962        -1.285220
