19
Iteration:  3524charge 0 multiplicity 1
 C         1.139365        -0.932724        -0.607054
 C        -0.075861        -0.395016        -0.018181
 C        -1.056197        -0.162873         0.656955
 C        -2.492224        -0.029884         1.009435
 C        -2.932402         1.318394         0.640589
 O        -3.361335        -0.987779         0.268205
 C        -3.217001        -2.327909         0.725675
 C        -2.394449        -3.058669        -0.396348
 O        -2.277613        -4.286224        -0.441293
 H         0.806475        -1.713505        -1.329795
 H         1.626819        -0.064840        -1.190932
 H         1.803041        -1.298839         0.183867
 H        -2.690406        -0.253006         2.099692
 H        -2.150233         2.092049         0.719760
 H        -3.012876         1.287825        -0.508428
 H        -3.896566         1.646986         0.966324
 H        -2.708202        -2.465951         1.678019
 H        -4.201476        -2.753915         0.800830
 H        -1.852144        -2.231794        -0.877035
