19
Iteration:  1540
 C         1.538676         0.744691        -0.122118
 C         0.230868         0.145787        -0.163943
 C        -0.937199        -0.119055         0.201671
 C        -2.372935        -0.275914         0.475861
 C        -3.106102         1.060718        -0.049892
 O        -2.785168        -1.481274        -0.202854
 C        -2.342290        -2.688573         0.450834
 C        -3.320075        -3.742658         0.065369
 O        -3.531627        -4.506043         0.959386
 H         2.155952         0.672366        -1.002782
 H         1.482953         1.860894         0.038111
 H         2.196014         0.403922         0.659710
 H        -2.563792        -0.432400         1.562415
 H        -3.613889         0.784811        -1.001117
 H        -3.794230         1.215455         0.743617
 H        -2.512941         2.037221        -0.188998
 H        -1.325262        -2.979123         0.161725
 H        -2.308153        -2.586916         1.523048
 H        -3.808671        -3.912753        -0.966940
