19
Iteration:  1092
 C         1.511924        -0.150351         0.022228
 C         0.101449         0.098961        -0.206591
 C        -1.024381        -0.018963         0.285979
 C        -2.553687         0.046343         0.324022
 C        -3.222982         1.145318        -0.609830
 O        -3.174728        -1.256633        -0.080424
 C        -2.752493        -2.301460         0.887298
 C        -3.164307        -3.688543         0.487516
 O        -2.393931        -4.656202         0.535627
 H         1.691680        -0.430956         1.082641
 H         1.996182        -0.794380        -0.772460
 H         1.990952         0.835030        -0.055293
 H        -2.898886         0.174825         1.359784
 H        -4.000865         1.614594         0.014758
 H        -2.587818         1.988280        -0.848790
 H        -3.633914         0.609936        -1.413700
 H        -1.613568        -2.316259         0.855692
 H        -3.163872        -2.019205         1.852830
 H        -4.269037        -3.855870         0.270293
