19
Iteration:  1236charge 0 multiplicity 1
 C         1.598187         0.044954         0.159834
 C         0.161370         0.044551         0.029197
 C        -1.045320        -0.012020         0.039333
 C        -2.504980         0.026467         0.259899
 C        -3.413250         1.192910        -0.470864
 O        -3.205828        -1.298825         0.280079
 C        -2.280554        -2.436333         0.276274
 C        -3.089567        -3.656852         0.274717
 O        -2.856455        -4.728057         0.738134
 H         2.210626         0.058372        -0.777544
 H         1.820503         1.016878         0.822795
 H         1.896033        -0.834768         0.795214
 H        -2.482156         0.375598         1.316348
 H        -4.320092         0.931644        -1.052811
 H        -3.747785         1.828072         0.376103
 H        -2.766644         1.755792        -1.170572
 H        -1.671562        -2.538704        -0.675286
 H        -1.785243        -2.363799         1.267552
 H        -4.127189        -3.475175        -0.078357
