19
Iteration:   493
 C         1.588494         0.476393         0.003121
 C         0.178669         0.268111         0.158371
 C        -1.045827         0.212878         0.103699
 C        -2.523200        -0.108231         0.177677
 C        -3.207180         0.937145        -0.793974
 O        -2.846188        -1.528961        -0.138828
 C        -2.290205        -2.591371         0.551365
 C        -3.202527        -3.826639         0.347508
 O        -3.302783        -4.560639         1.285792
 H         2.078903        -0.503513        -0.256057
 H         1.756056         1.173008        -0.828085
 H         2.099881         0.725688         0.907745
 H        -2.789463         0.019079         1.242091
 H        -4.047645         1.539478        -0.368885
 H        -2.538937         1.757667        -1.130700
 H        -3.662818         0.376333        -1.626747
 H        -1.316881        -2.799361        -0.041443
 H        -2.142560        -2.564046         1.651743
 H        -3.895999        -3.936361        -0.524181
