19
Iteration:  3992charge 0 multiplicity 1
 C         1.033337        -1.357926        -0.377924
 C        -0.189330        -0.888094         0.164739
 C        -1.285927        -0.466403         0.386386
 C        -2.472001        -0.127436         1.084770
 C        -2.814726         1.372461         0.796222
 O        -3.608807        -0.831705         0.599173
 C        -3.256388        -2.315733         0.490841
 C        -2.396509        -2.687425        -0.723406
 O        -1.747938        -3.696730        -0.675242
 H         1.232982        -0.616786        -1.099623
 H         1.711512        -1.205856         0.403216
 H         0.980089        -2.409416        -0.619527
 H        -2.360578        -0.470581         2.166366
 H        -1.972668         1.975995         1.043800
 H        -3.041914         1.510478        -0.242708
 H        -3.741446         1.519358         1.412076
 H        -2.665220        -2.429643         1.392754
 H        -4.238541        -2.837690         0.477136
 H        -2.455587        -2.117012        -1.673792
