19
Iteration:  4093charge 0 multiplicity 1
 C         1.228756        -1.219431        -0.374549
 C        -0.012569        -0.800177         0.332346
 C        -1.124034        -0.603531         0.750118
 C        -2.453618        -0.084553         1.074875
 C        -2.824793         1.421129         0.628844
 O        -3.583233        -0.936317         0.665209
 C        -3.333832        -2.328868         0.509752
 C        -2.660596        -2.759526        -0.836677
 O        -1.927908        -3.702345        -0.883129
 H         1.210845        -2.266467        -0.491193
 H         1.136432        -0.728318        -1.276349
 H         2.068656        -0.812278         0.184898
 H        -2.652117        -0.171358         2.185331
 H        -1.986936         2.032373         0.948531
 H        -2.924915         1.468091        -0.462386
 H        -3.515586         1.848279         1.282906
 H        -2.677002        -2.774383         1.278730
 H        -4.318214        -2.875918         0.598105
 H        -2.835193        -2.190665        -1.872086
