19
Iteration:  3735
 C         1.330806        -0.661540        -0.358391
 C        -0.085203        -0.656134        -0.107102
 C        -1.170062        -0.768537         0.387709
 C        -2.386567        -0.255201         0.884561
 C        -2.664890         1.279704         0.745659
 O        -3.565881        -0.906131         0.406577
 C        -3.573552        -2.342009         0.602581
 C        -2.611061        -2.847060        -0.457367
 O        -1.986078        -3.905493        -0.411071
 H         1.676353        -0.341868        -1.387154
 H         1.846912        -0.142320         0.460325
 H         1.803462        -1.615352        -0.338622
 H        -2.361349        -0.606994         1.935355
 H        -1.824925         1.817739         0.307880
 H        -3.431863         1.405076        -0.014146
 H        -3.056017         1.677338         1.744592
 H        -3.351921        -2.468171         1.679067
 H        -4.618145        -2.615910         0.635820
 H        -2.768814        -2.314463        -1.422223
