19
Iteration:  2607
 C         1.355437        -0.455360        -0.583753
 C         0.056907        -0.217603        -0.081878
 C        -1.128636        -0.077534         0.282243
 C        -2.477565         0.057792         0.645190
 C        -3.254158         1.187971        -0.141574
 O        -3.200589        -1.208113         0.624452
 C        -2.483287        -2.424220         1.084252
 C        -2.483942        -3.283242        -0.114468
 O        -3.019573        -4.400110        -0.025995
 H         1.710338         0.360774        -1.251142
 H         1.898229        -0.673062         0.322340
 H         1.372053        -1.438299        -1.043421
 H        -2.447770         0.431989         1.683704
 H        -4.306783         1.005905         0.113392
 H        -2.978325         2.104027         0.314020
 H        -3.039631         1.171361        -1.248067
 H        -1.483717        -2.050441         1.503972
 H        -3.045647        -2.943770         1.885910
 H        -2.039291        -2.904516        -1.009997
