19
Iteration:  3953charge 0 multiplicity 1
 C         1.016932        -1.485152        -0.463401
 C        -0.066571        -0.758114         0.085281
 C        -1.093153        -0.305049         0.612410
 C        -2.566150        -0.019210         1.037116
 C        -3.052768         1.495204         0.967806
 O        -3.501076        -0.859527         0.356594
 C        -3.260331        -2.291112         0.576603
 C        -2.377077        -2.818677        -0.621807
 O        -1.795068        -3.884844        -0.736166
 H         1.925177        -0.858058        -0.694635
 H         1.445361        -2.254198         0.263606
 H         0.871246        -1.994390        -1.440979
 H        -2.614855        -0.177391         2.111555
 H        -2.312113         2.325013         1.012017
 H        -3.639098         1.605605         0.005809
 H        -3.697990         1.726008         1.771130
 H        -2.730169        -2.677824         1.411785
 H        -4.211699        -2.808465         0.594979
 H        -2.339762        -1.976979        -1.395277
