19
Iteration:   174
 C         1.579714         0.523125        -0.296727
 C         0.228512         0.172010         0.066730
 C        -0.929593        -0.194187         0.236625
 C        -2.417902        -0.026459         0.121635
 C        -3.036569         0.578919        -1.184662
 O        -2.963639        -1.410836         0.003350
 C        -2.451064        -2.366489         0.947501
 C        -3.505889        -3.483052         0.870038
 O        -3.136023        -4.619360         1.003818
 H         1.935106        -0.046852        -1.176027
 H         1.639597         1.635635        -0.433103
 H         2.310259         0.357741         0.574079
 H        -2.919510         0.399624         1.050028
 H        -2.218258         1.211293        -1.681156
 H        -3.540303        -0.105868        -1.869211
 H        -3.779340         1.372650        -0.854230
 H        -1.516250        -2.892296         0.675685
 H        -2.262987        -1.846409         1.903620
 H        -4.520922        -3.281247         0.512274
