19
Iteration:  2756
 C         1.451036        -0.240557        -0.633124
 C         0.022158        -0.493777        -0.229204
 C        -1.105183        -0.151168         0.260640
 C        -2.390665         0.050357         0.860022
 C        -3.016582         1.054108        -0.076357
 O        -3.387251        -1.046639         0.869399
 C        -2.909613        -2.347748         0.996562
 C        -2.785135        -3.260393        -0.267324
 O        -2.594745        -4.461904        -0.107352
 H         2.025813        -1.039564        -0.130861
 H         1.519199        -0.482320        -1.751931
 H         1.836040         0.686597        -0.262629
 H        -2.229413         0.341769         1.913270
 H        -4.083558         1.324132         0.205157
 H        -2.385701         1.904237         0.037024
 H        -3.036757         0.669888        -1.173094
 H        -1.858280        -2.312464         1.342570
 H        -3.411214        -2.786144         1.939438
 H        -2.719039        -2.715448        -1.314398
