19
Iteration:    40charge 0 multiplicity 1
 C         1.613599         0.242486        -0.168509
 C         0.200532        -0.101020        -0.171333
 C        -0.987958        -0.002784         0.011334
 C        -2.412892        -0.037863        -0.035973
 C        -3.308990         0.726088        -1.112860
 O        -2.665465        -1.447663        -0.062108
 C        -2.617841        -2.142814         1.154820
 C        -3.428731        -3.508703         0.773247
 O        -3.013658        -4.550256         1.205994
 H         1.767540         0.923730         0.667385
 H         2.174496        -0.684921         0.111027
 H         1.898366         0.712586        -1.167135
 H        -2.760385         0.317966         1.017756
 H        -3.971347         0.017964        -1.595783
 H        -3.986732         1.483522        -0.598213
 H        -2.619642         1.162065        -1.885551
 H        -1.645424        -2.477459         1.593115
 H        -3.157071        -1.549422         1.973020
 H        -4.368257        -3.274786         0.115060
