19
Iteration:   124
 C         1.661190         0.454063        -0.179153
 C         0.226840         0.128229        -0.134771
 C        -0.987702         0.006116        -0.018808
 C        -2.391371        -0.106442         0.033141
 C        -3.101766         0.628592        -1.153045
 O        -2.813750        -1.511316         0.056959
 C        -2.590139        -2.266082         1.219443
 C        -3.509846        -3.475199         0.953747
 O        -3.130697        -4.637544         0.886736
 H         1.909243         0.991417        -1.127992
 H         2.003448         1.030694         0.671942
 H         2.301034        -0.382136        -0.134562
 H        -2.798952         0.274151         0.920097
 H        -3.523258         1.590531        -0.823981
 H        -2.410969         0.791261        -1.993331
 H        -3.914095         0.051223        -1.548652
 H        -1.556322        -2.643997         1.269981
 H        -2.787620        -1.671900         2.105709
 H        -4.652294        -3.314415         0.853898
