19
Iteration:  4447charge 0 multiplicity 1
 C         1.727813        -0.468875         0.248808
 C         0.274240        -0.357520         0.253107
 C        -0.872832        -0.577211         0.631429
 C        -2.318809        -0.210670         0.993835
 C        -2.798561         1.208891         1.071568
 O        -3.277344        -0.898190         0.160128
 C        -3.206008        -2.319458         0.384012
 C        -3.112335        -3.082736        -0.897657
 O        -2.991106        -4.277203        -1.081579
 H         2.102585        -0.128224         1.216059
 H         2.119782        -1.511166         0.068992
 H         2.238112         0.215301        -0.431935
 H        -2.263420        -0.603334         2.072489
 H        -2.125343         2.016393         1.370674
 H        -3.395375         1.528255         0.144153
 H        -3.580793         1.338050         1.885626
 H        -2.526310        -2.608832         1.128710
 H        -4.205163        -2.596157         0.723421
 H        -3.254016        -2.362147        -1.788672
