19
Iteration:  4243
 C         1.434502        -1.133567        -0.083567
 C         0.040020        -0.582724         0.179367
 C        -1.019153        -0.253575         0.727390
 C        -2.512514        -0.066097         1.077769
 C        -2.995547         1.400188         1.021606
 O        -3.366449        -0.914694         0.257032
 C        -3.074753        -2.314103         0.528784
 C        -2.513143        -2.946383        -0.748812
 O        -2.655428        -4.088525        -1.151312
 H         2.102286        -0.310915        -0.460185
 H         1.710933        -1.519978         0.923272
 H         1.466050        -2.044523        -0.780757
 H        -2.573306        -0.135373         2.140387
 H        -2.359732         2.093585         1.556894
 H        -3.162274         1.805807        -0.014213
 H        -4.039350         1.431344         1.330937
 H        -2.370739        -2.527655         1.288675
 H        -3.826660        -2.830611         0.987022
 H        -1.770000        -2.349776        -1.221545
