19
Iteration:  2544
 C         1.296645        -0.482578        -0.610271
 C        -0.022772        -0.268220        -0.199175
 C        -1.001940         0.173122         0.416193
 C        -2.417615         0.183392         0.727941
 C        -3.352375         1.219348        -0.033755
 O        -2.985525        -1.102179         0.425656
 C        -2.722818        -2.413943         1.008908
 C        -2.426211        -3.497569        -0.068353
 O        -2.979741        -4.568991         0.067877
 H         2.039853        -0.003922        -0.031118
 H         1.577332        -1.548643        -0.540089
 H         1.484563        -0.136950        -1.685201
 H        -2.576361         0.359082         1.818042
 H        -4.202738         1.456364         0.573788
 H        -2.865813         2.160745        -0.283091
 H        -3.700624         0.834653        -1.012933
 H        -2.018930        -2.526837         1.828224
 H        -3.662517        -2.727114         1.407866
 H        -1.718732        -3.302646        -0.944276
