19
Iteration:   287
 C         1.601317         0.335377         0.072432
 C         0.181206         0.080407         0.067068
 C        -1.021100        -0.113624        -0.089665
 C        -2.481351        -0.169764         0.080538
 C        -3.351906         0.815960        -0.753779
 O        -2.867089        -1.420692        -0.327686
 C        -2.305014        -2.451520         0.467448
 C        -3.344369        -3.465198         0.711156
 O        -3.056793        -4.434512         1.379235
 H         2.007759         0.277976         1.147772
 H         2.154036        -0.431686        -0.498686
 H         1.781511         1.290008        -0.384521
 H        -2.663960         0.065145         1.114504
 H        -4.157762         1.115300        -0.099497
 H        -2.795229         1.643366        -1.199301
 H        -3.825354         0.206269        -1.491476
 H        -1.399430        -2.935736         0.097457
 H        -2.164394        -2.037678         1.465130
 H        -4.354699        -3.114098         0.300110
