19
Iteration:  3590charge 0 multiplicity 1
 C         1.037764        -0.947209        -0.690643
 C        -0.038572        -0.633610         0.272021
 C        -1.082842        -0.076446         0.612271
 C        -2.506803         0.046870         0.991453
 C        -3.036503         1.481809         0.781385
 O        -3.313581        -0.857948         0.201207
 C        -3.123640        -2.259011         0.542597
 C        -2.304917        -3.199887        -0.466628
 O        -2.305305        -4.402775        -0.384418
 H         1.838836        -1.649748        -0.344364
 H         0.399856        -1.270662        -1.579240
 H         1.658682        -0.064590        -0.862516
 H        -2.524774        -0.192190         2.117182
 H        -2.255532         2.118099         1.268963
 H        -3.007446         1.601897        -0.357190
 H        -4.069103         1.611021         1.123485
 H        -2.703678        -2.501806         1.531421
 H        -4.079151        -2.786492         0.616017
 H        -1.533000        -2.845563        -1.184765
