19
Iteration:  3788charge 0 multiplicity 1
 C         1.303489        -0.795810        -0.519961
 C         0.026954        -0.724810         0.143916
 C        -1.130148        -0.486909         0.445131
 C        -2.467212        -0.145205         0.981009
 C        -2.727415         1.284266         0.728166
 O        -3.579503        -0.946835         0.548381
 C        -3.495601        -2.353206         0.404410
 C        -2.587187        -2.904450        -0.625612
 O        -2.011163        -3.927152        -0.364264
 H         1.182337        -1.586296        -1.278122
 H         1.562050         0.111422        -1.164585
 H         2.045333        -1.148942         0.140612
 H        -2.406792        -0.345214         2.093436
 H        -1.852923         1.902519         0.945665
 H        -3.052214         1.427547        -0.280987
 H        -3.456996         1.555442         1.563749
 H        -3.502501        -2.819339         1.424845
 H        -4.610000        -2.558254         0.337868
 H        -2.374094        -2.239249        -1.500192
