19
Iteration:  3507charge 0 multiplicity 1
 C         1.261641        -0.883009        -0.616280
 C         0.007678        -0.482629         0.023126
 C        -1.027231        -0.124158         0.564770
 C        -2.441265        -0.023799         0.942703
 C        -2.977445         1.385949         0.530631
 O        -3.469139        -0.981298         0.452437
 C        -3.327686        -2.422743         0.693314
 C        -2.471930        -3.074679        -0.326701
 O        -2.212924        -4.263236        -0.484914
 H         0.990579        -1.331377        -1.578668
 H         2.002473        -0.134379        -0.777247
 H         1.854883        -1.567576         0.034027
 H        -2.464228        -0.166767         2.031778
 H        -2.430247         2.083216         1.161428
 H        -2.934376         1.690832        -0.485941
 H        -4.009332         1.375840         0.957293
 H        -2.766929        -2.466686         1.675993
 H        -4.354061        -2.863056         0.808110
 H        -2.105911        -2.409213        -1.139079
