19
Iteration:  2550
 C         1.307243        -0.528700        -0.644131
 C         0.007385        -0.218839        -0.130656
 C        -1.000976         0.202390         0.431883
 C        -2.402879         0.137902         0.688219
 C        -3.354599         1.161773        -0.037257
 O        -3.024305        -1.118066         0.427235
 C        -2.713563        -2.425044         1.032749
 C        -2.433001        -3.441642        -0.087334
 O        -2.994461        -4.545271         0.057654
 H         2.143386         0.085367        -0.116406
 H         1.785685        -1.514205        -0.471341
 H         1.247420        -0.279453        -1.682252
 H        -2.528531         0.324960         1.767991
 H        -4.270156         1.398152         0.579969
 H        -2.777042         2.071296        -0.270225
 H        -3.811918         0.770795        -0.979243
 H        -1.841946        -2.116911         1.732692
 H        -3.699670        -2.768590         1.474291
 H        -1.717556        -3.224625        -0.909873
