19
Iteration:  1369charge 0 multiplicity 1
 C         1.622140         0.379782        -0.374151
 C         0.318554         0.300446         0.158587
 C        -0.843540         0.167963         0.486486
 C        -2.380313        -0.041297         0.506850
 C        -3.260388         0.796044        -0.406961
 O        -2.816649        -1.325154        -0.018444
 C        -2.710749        -2.482253         0.777133
 C        -3.275547        -3.673083         0.153149
 O        -3.193776        -4.815237         0.535488
 H         2.512114         0.289965         0.286190
 H         1.864468        -0.351858        -1.221622
 H         1.734835         1.415696        -0.849967
 H        -2.824800         0.077015         1.545865
 H        -2.972862         1.777977        -0.733103
 H        -3.304770         0.243640        -1.322629
 H        -4.221900         0.678520         0.163754
 H        -1.842481        -2.710350         1.363618
 H        -3.431675        -2.294646         1.611078
 H        -3.837143        -3.476881        -0.795447
