19
Iteration:  1730charge 0 multiplicity 1
 C         1.732556         0.151706        -0.232733
 C         0.253907         0.131573         0.071912
 C        -0.944728         0.100866         0.062306
 C        -2.398493        -0.050085         0.402516
 C        -3.352831         1.129394         0.008559
 O        -3.029882        -1.246940        -0.161249
 C        -2.626538        -2.473325         0.472725
 C        -3.331656        -3.768811         0.157203
 O        -2.971677        -4.709339         0.860523
 H         2.236194         1.115073        -0.051333
 H         2.282640        -0.516203         0.442291
 H         1.924238        -0.258577        -1.243403
 H        -2.350081        -0.185349         1.519777
 H        -4.352915         1.049265         0.437855
 H        -2.924301         2.196160         0.263617
 H        -3.340320         1.098155        -1.064124
 H        -1.568425        -2.828581         0.251572
 H        -2.639356        -2.360465         1.559491
 H        -4.088921        -3.886454        -0.687433
