19
Iteration:  1155
 C         1.452188        -0.283597        -0.014494
 C         0.109589        -0.003206         0.388586
 C        -1.113490         0.205796         0.265218
 C        -2.589642         0.151520         0.294445
 C        -3.489717         0.980302        -0.665124
 O        -3.021045        -1.205186         0.051089
 C        -2.204797        -2.289756         0.505760
 C        -3.087102        -3.556942         0.452261
 O        -2.695549        -4.715823         0.574449
 H         2.068241         0.619294         0.171458
 H         1.926000        -1.205490         0.275988
 H         1.282820        -0.275380        -1.119705
 H        -3.009102         0.539953         1.249016
 H        -4.357805         1.290514        -0.072686
 H        -3.112672         1.887235        -1.150276
 H        -3.876375         0.387388        -1.540895
 H        -1.434249        -2.499056        -0.251594
 H        -1.659780        -2.315373         1.458476
 H        -4.130820        -3.360972         0.192851
