19
Iteration:    90
 C         1.736058         0.248247        -0.153092
 C         0.263149         0.501405        -0.189866
 C        -0.901002         0.156465        -0.093252
 C        -2.340282        -0.179043         0.048501
 C        -3.107612         0.517584        -1.049776
 O        -2.872814        -1.501537        -0.083500
 C        -2.777552        -2.127593         1.141389
 C        -3.587662        -3.583160         1.035775
 O        -3.031197        -4.679654         0.956139
 H         2.351577         1.148401        -0.432770
 H         1.987962        -0.040811         0.850965
 H         1.883340        -0.522707        -0.841267
 H        -2.573867         0.146010         1.017274
 H        -4.080761         0.842861        -0.598066
 H        -2.614550         1.377596        -1.402769
 H        -3.291760        -0.196177        -1.802233
 H        -1.780190        -2.551665         1.286387
 H        -2.998475        -1.445868         1.946532
 H        -4.691442        -3.489326         1.069065
