19
Iteration:   189
 C         1.686305         0.519023        -0.262833
 C         0.213349         0.310063         0.007302
 C        -0.951091        -0.041230         0.229490
 C        -2.443533        -0.169346         0.130078
 C        -2.922340         0.666351        -1.115313
 O        -3.080911        -1.412653         0.001325
 C        -2.539606        -2.406293         0.796461
 C        -3.487158        -3.545663         0.871889
 O        -3.117416        -4.673205         1.087059
 H         2.028690        -0.321313        -0.948307
 H         1.860729         1.440009        -0.821301
 H         2.240270         0.522366         0.628913
 H        -2.776134         0.349977         1.107083
 H        -2.183386         0.750515        -1.880776
 H        -3.611109        -0.098148        -1.430890
 H        -3.448913         1.558585        -0.988287
 H        -1.590418        -2.714001         0.316947
 H        -2.373025        -2.165327         1.907304
 H        -4.510304        -3.172471         0.762145
