19
Iteration:  4809
 C         1.906676        -0.056477         0.343537
 C         0.463084        -0.260170         0.741267
 C        -0.763227        -0.522324         0.895662
 C        -2.227042        -0.365354         1.058093
 C        -2.834854         1.060873         1.109758
 O        -2.977312        -1.060634        -0.004541
 C        -2.818362        -2.448669         0.130953
 C        -3.692084        -3.100226        -0.922469
 O        -3.593189        -4.204478        -1.416712
 H         2.205658         0.275623        -0.620068
 H         2.031692         0.801122         0.977038
 H         2.468183        -0.896533         0.655790
 H        -2.421300        -0.896865         1.956966
 H        -2.487212         1.542747         2.065030
 H        -2.429207         1.538310         0.262778
 H        -3.922214         1.033976         0.972622
 H        -1.818110        -2.698731        -0.042579
 H        -3.142908        -2.767526         1.162857
 H        -4.639572        -2.592945        -1.071402
