19
Iteration:  1219charge 0 multiplicity 1
 C         1.515561        -0.060505         0.234895
 C         0.069588         0.147001        -0.110622
 C        -1.160293         0.075878         0.041956
 C        -2.626020         0.078135         0.372452
 C        -3.287276         1.134616        -0.502829
 O        -3.077418        -1.325765         0.280241
 C        -2.134962        -2.409692         0.257905
 C        -3.167186        -3.640776         0.339964
 O        -2.850886        -4.727402         0.704790
 H         2.150151         0.230869        -0.585514
 H         1.882834         0.432117         1.056186
 H         1.730357        -1.129173         0.312728
 H        -2.799836         0.283952         1.443023
 H        -4.093464         0.571500        -0.944625
 H        -3.519006         1.971352         0.141688
 H        -2.653695         1.450396        -1.379489
 H        -1.484332        -2.201408        -0.590665
 H        -1.491436        -2.527800         1.138210
 H        -4.242266        -3.352260        -0.019875
