19
Iteration:  3918charge 0 multiplicity 1
 C         0.960210        -1.491540        -0.498522
 C        -0.164061        -0.699947         0.104444
 C        -1.092194        -0.063286         0.554965
 C        -2.512178        -0.023504         1.092047
 C        -3.137097         1.362927         1.010633
 O        -3.296124        -0.868011         0.384375
 C        -3.112659        -2.238352         0.439066
 C        -2.335691        -2.845890        -0.685554
 O        -1.966973        -3.980733        -0.584515
 H         1.840643        -1.158843         0.060969
 H         0.721737        -2.547692        -0.328730
 H         0.953417        -1.293097        -1.630247
 H        -2.452049        -0.506670         2.050189
 H        -2.411933         2.102919         1.243720
 H        -3.295725         1.407709        -0.051854
 H        -4.154297         1.443615         1.436874
 H        -2.822154        -2.525343         1.406034
 H        -4.146012        -2.403585         0.257552
 H        -2.127007        -2.127814        -1.544405
