19
Iteration:  2635charge 0 multiplicity 1
 C         1.477693        -0.370641        -0.538870
 C        -0.009527        -0.427020        -0.262330
 C        -1.084681         0.011176         0.215329
 C        -2.481036         0.151850         0.816967
 C        -3.200127         1.058759        -0.142680
 O        -3.270796        -1.056944         0.812262
 C        -2.595503        -2.318962         1.003447
 C        -2.527170        -3.409387        -0.113984
 O        -2.999712        -4.506065        -0.132910
 H         1.726142         0.137651        -1.513399
 H         1.748115         0.260261         0.360459
 H         2.002023        -1.325112        -0.455514
 H        -2.419582         0.602127         1.834572
 H        -4.286446         0.794988        -0.035679
 H        -3.071388         2.136581         0.150700
 H        -2.848398         0.927195        -1.178343
 H        -1.575016        -2.127432         1.254765
 H        -2.969212        -2.889165         1.880043
 H        -1.806777        -3.074198        -0.974788
