19
Iteration:  1004charge 0 multiplicity 1
 C         1.560471         0.147600        -0.187552
 C         0.161303        -0.204448        -0.123535
 C        -1.025581        -0.187295         0.184390
 C        -2.514459        -0.017829         0.418667
 C        -3.076108         0.939512        -0.569492
 O        -3.198912        -1.180646         0.020724
 C        -3.179800        -2.282627         1.010862
 C        -2.872193        -3.513127         0.210875
 O        -2.515621        -4.573298         0.737877
 H         2.012904        -0.423573        -1.029478
 H         1.689102         1.231594        -0.395804
 H         2.208162        -0.214274         0.642004
 H        -2.723803         0.327073         1.470113
 H        -3.999772         0.523357        -0.991032
 H        -3.395379         1.883226        -0.156799
 H        -2.512132         1.029309        -1.482721
 H        -2.238961        -2.338305         1.669625
 H        -4.105534        -2.299833         1.622356
 H        -2.992280        -3.461398        -0.882262
