19
Iteration:  3389charge 0 multiplicity 1
 C         1.375203        -0.795377        -0.430994
 C         0.016480        -0.615966         0.026248
 C        -1.178990        -0.449447         0.186721
 C        -2.441570        -0.112469         0.854756
 C        -2.884952         1.359247         0.373156
 O        -3.641833        -0.990614         0.635653
 C        -3.207362        -2.429934         0.886901
 C        -2.777268        -3.000626        -0.410660
 O        -1.967299        -3.912337        -0.406693
 H         2.032823        -0.162674         0.123989
 H         1.816630        -1.813165        -0.318790
 H         1.711943        -0.580866        -1.490230
 H        -2.149070        -0.095402         1.916155
 H        -2.043033         1.947089        -0.012272
 H        -3.462691         1.007242        -0.451878
 H        -3.586497         1.805489         1.145224
 H        -2.566970        -2.567053         1.710637
 H        -4.171832        -2.961997         1.047538
 H        -3.499720        -2.791069        -1.254661
