19
Iteration:  3888
 C         0.975105        -1.398193        -0.576321
 C        -0.112642        -0.635306         0.093092
 C        -1.136612        -0.220090         0.576612
 C        -2.463027         0.107687         1.047821
 C        -3.092932         1.497762         1.079599
 O        -3.478289        -0.789184         0.385468
 C        -3.088479        -2.237798         0.412142
 C        -2.282817        -2.984563        -0.678683
 O        -1.957810        -4.171579        -0.589988
 H         1.674234        -1.749783         0.233050
 H         0.551981        -2.384749        -0.888203
 H         1.549033        -0.835740        -1.196397
 H        -2.611336        -0.364261         2.054356
 H        -2.805483         2.063974         1.983664
 H        -2.905924         2.041652         0.083117
 H        -4.136835         1.301019         0.946985
 H        -2.707593        -2.415486         1.462988
 H        -4.140706        -2.637739         0.582718
 H        -1.905698        -2.387866        -1.544110
