19
Iteration:  4041charge 0 multiplicity 1
 C         1.273724        -1.255497        -0.387426
 C        -0.079170        -0.879158         0.013605
 C        -1.138918        -0.660331         0.639176
 C        -2.451923        -0.090466         1.035950
 C        -2.766866         1.301942         0.636816
 O        -3.688782        -0.994721         0.679711
 C        -3.540532        -2.369108         0.532862
 C        -2.557656        -2.595546        -0.627101
 O        -1.752855        -3.508336        -0.761989
 H         1.139989        -1.707441        -1.446759
 H         2.031537        -0.349011        -0.402790
 H         1.443274        -1.994783         0.457223
 H        -2.658817        -0.196756         2.088182
 H        -2.272402         1.991853         1.450002
 H        -2.348321         1.568367        -0.373382
 H        -3.841028         1.416593         0.892230
 H        -3.129470        -2.820016         1.446468
 H        -4.545465        -2.719385         0.322359
 H        -2.455483        -1.748650        -1.340472
