19
Iteration:  1527
 C         1.592544         0.782970        -0.150423
 C         0.272672         0.083522        -0.024867
 C        -0.964922        -0.032766         0.087104
 C        -2.345642        -0.228528         0.410817
 C        -3.147721         1.078439        -0.005696
 O        -2.742788        -1.509797        -0.236737
 C        -2.374636        -2.642991         0.506765
 C        -3.313453        -3.784569         0.108146
 O        -3.562041        -4.615855         0.938124
 H         1.753502         0.833604        -1.270989
 H         1.383382         1.784177         0.291811
 H         2.334209         0.199111         0.400208
 H        -2.540274        -0.314022         1.512734
 H        -3.905865         1.006283        -0.784632
 H        -3.656004         1.682766         0.760395
 H        -2.326296         1.673622        -0.302585
 H        -1.342381        -2.958296         0.392042
 H        -2.664821        -2.537778         1.550273
 H        -3.649838        -3.672127        -1.027674
