19
Iteration:   597charge 0 multiplicity 1
 C         1.740884         0.705944        -0.073896
 C         0.300451         0.340567        -0.199932
 C        -0.823198        -0.133803         0.061056
 C        -2.368836        -0.030195         0.176464
 C        -3.108550         0.949275        -0.851104
 O        -2.953116        -1.482601         0.016809
 C        -2.838862        -2.426871         1.054299
 C        -3.568262        -3.813442         0.692633
 O        -2.983619        -4.905085         0.720369
 H         1.866399         1.208242         0.839733
 H         2.412261        -0.115218        -0.018341
 H         2.095347         1.275233        -0.950100
 H        -2.489263         0.312261         1.243076
 H        -4.124403         0.521698        -1.053208
 H        -3.146344         1.899206        -0.324053
 H        -2.525679         1.242103        -1.662620
 H        -1.811116        -2.643843         1.548442
 H        -3.495927        -2.051515         1.829094
 H        -4.648276        -3.788107         0.363273
