19
Iteration:  1112
 C         1.502400        -0.144797        -0.002763
 C         0.015381        -0.075705         0.041606
 C        -1.210765         0.023514         0.217399
 C        -2.650045         0.041974         0.284617
 C        -3.247693         1.148283        -0.589271
 O        -3.099447        -1.303097        -0.060866
 C        -2.468150        -2.252392         0.775003
 C        -3.120869        -3.591431         0.525328
 O        -2.482868        -4.653863         0.521073
 H         1.955435        -0.079510         1.042077
 H         1.852773        -1.093345        -0.470416
 H         1.986053         0.703980        -0.596802
 H        -2.879568         0.186274         1.344252
 H        -3.879790         1.776653         0.022847
 H        -2.464837         1.837194        -0.918106
 H        -3.703957         0.752972        -1.505423
 H        -1.374315        -2.301557         0.595681
 H        -2.661926        -1.889676         1.826961
 H        -4.205387        -3.602731         0.194834
