19
Iteration:  2402
 C         1.352786        -0.304127        -0.646996
 C        -0.059949        -0.133408        -0.302298
 C        -1.098133        -0.392392         0.195460
 C        -2.412718        -0.147047         0.628053
 C        -2.763493         1.308833         0.218975
 O        -3.464316        -1.037535         0.195855
 C        -3.475855        -2.321471         0.776012
 C        -2.562154        -3.391577         0.086625
 O        -2.218214        -4.478438         0.496937
 H         1.413811        -0.892725        -1.518641
 H         1.883593         0.597435        -0.911218
 H         1.879991        -0.863758         0.148109
 H        -2.357281        -0.284905         1.714762
 H        -3.444559         1.739559         0.963417
 H        -1.906087         1.870928         0.161425
 H        -3.228887         1.299126        -0.804917
 H        -3.132986        -2.301800         1.841714
 H        -4.555032        -2.526492         0.772637
 H        -2.246601        -3.023991        -0.995076
