19
Iteration:   384charge 0 multiplicity 1
 C         1.561058         0.147187         0.185853
 C         0.115063         0.113514         0.081340
 C        -1.082066         0.168994         0.045746
 C        -2.481900        -0.159080         0.129521
 C        -3.477972         0.743237        -0.658549
 O        -2.894978        -1.439774        -0.350872
 C        -2.060936        -2.461010         0.192671
 C        -3.043718        -3.547943         0.557431
 O        -3.260092        -4.298036         1.481255
 H         1.973237         1.150378        -0.229303
 H         2.013965        -0.053497         1.181005
 H         1.829580        -0.632194        -0.486155
 H        -2.814586        -0.212244         1.239400
 H        -3.500988         0.313062        -1.743892
 H        -4.511667         0.650266        -0.212418
 H        -2.995540         1.731762        -0.677512
 H        -1.202342        -2.651088        -0.492225
 H        -1.822411        -2.224010         1.218918
 H        -3.704932        -3.538401        -0.345241
