19
Iteration:  1109charge 0 multiplicity 1
 C         1.513968        -0.115750        -0.009970
 C         0.023950        -0.072366         0.000370
 C        -1.183960         0.008855         0.248088
 C        -2.638909         0.027562         0.271194
 C        -3.252792         1.167218        -0.568308
 O        -3.109540        -1.287424        -0.079189
 C        -2.500364        -2.246102         0.805145
 C        -3.132639        -3.623075         0.527376
 O        -2.470914        -4.651096         0.519208
 H         1.834126        -0.232301         1.036697
 H         1.775318        -1.052855        -0.411851
 H         2.123043         0.679228        -0.520029
 H        -2.895623         0.214935         1.347110
 H        -3.987049         1.783976        -0.053681
 H        -2.430020         1.773584        -0.985310
 H        -3.702371         0.761041        -1.552214
 H        -1.445835        -2.302928         0.650761
 H        -2.615533        -1.958917         1.900160
 H        -4.168330        -3.631226         0.182848
