19
Iteration:  4076
 C         1.181203        -1.193897        -0.373944
 C         0.021713        -0.774591         0.347229
 C        -1.149591        -0.563555         0.583719
 C        -2.448298        -0.136523         1.153074
 C        -2.747409         1.176957         0.628026
 O        -3.597372        -0.913046         0.646197
 C        -3.405454        -2.286804         0.479410
 C        -2.647867        -2.682140        -0.793538
 O        -1.875711        -3.616804        -0.808849
 H         0.977132        -2.288496        -0.724517
 H         1.526756        -0.505209        -1.268011
 H         2.119231        -1.355879         0.222816
 H        -2.399916        -0.253362         2.251791
 H        -2.093935         2.050241         0.977065
 H        -2.804328         1.170463        -0.475913
 H        -3.839147         1.490807         0.889716
 H        -2.970567        -2.756142         1.386503
 H        -4.403794        -2.727424         0.488080
 H        -3.030626        -2.002909        -1.524667
