19
Iteration:  2151charge 0 multiplicity 1
 C         0.986734        -1.438038        -0.621835
 C        -0.312996        -0.907004        -0.214492
 C        -1.373543        -0.274211         0.105609
 C        -2.748692         0.034450         0.635656
 C        -3.189428         1.442308         0.343888
 O        -3.607950        -1.018352         0.116646
 C        -3.240279        -2.219665         0.752044
 C        -2.088004        -2.901968         0.036362
 O        -1.258290        -3.680394         0.483332
 H         1.038391        -2.425075        -1.056476
 H         1.460762        -0.654410        -1.280415
 H         1.759919        -1.518038         0.194351
 H        -2.686493        -0.078899         1.727489
 H        -4.275691         1.477866         0.226763
 H        -2.825831         2.107298         1.195411
 H        -2.704010         1.806006        -0.523908
 H        -3.160901        -1.993464         1.802978
 H        -3.961794        -2.996732         0.630300
 H        -2.014784        -2.562119        -1.040988
