19
Iteration:  1524
 C         1.581869         0.780316        -0.164248
 C         0.278650         0.084433         0.008616
 C        -0.957172        -0.017510         0.077268
 C        -2.346466        -0.216094         0.379888
 C        -3.158767         1.072405         0.004468
 O        -2.738957        -1.499965        -0.242682
 C        -2.394110        -2.627271         0.512168
 C        -3.291753        -3.789987         0.132031
 O        -3.578705        -4.645334         0.922936
 H         1.734011         0.891109        -1.282199
 H         1.445830         1.732624         0.330886
 H         2.392560         0.186559         0.353097
 H        -2.437422        -0.347941         1.486764
 H        -3.886487         0.954295        -0.780519
 H        -3.561000         1.754297         0.791370
 H        -2.343056         1.628709        -0.336643
 H        -1.324320        -2.925647         0.416074
 H        -2.698052        -2.544596         1.593270
 H        -3.654217        -3.680239        -0.933687
