19
Iteration:  1195charge 0 multiplicity 1
 C         1.379028        -0.205206         0.146694
 C         0.016113         0.176663        -0.042640
 C        -1.119779         0.311508         0.249854
 C        -2.528155         0.082883         0.416528
 C        -3.314615         0.889190        -0.561934
 O        -3.028487        -1.200935         0.165740
 C        -2.203741        -2.430542         0.340669
 C        -3.099923        -3.567293         0.350683
 O        -2.816759        -4.702708         0.653279
 H         2.134156         0.432502        -0.274494
 H         1.666286        -0.352245         1.179400
 H         1.533922        -1.169051        -0.384722
 H        -2.686046         0.285211         1.488195
 H        -4.259176         0.404101        -0.624119
 H        -3.174851         1.936000        -0.338965
 H        -2.875741         0.647315        -1.613616
 H        -1.675004        -2.456811        -0.645891
 H        -1.372876        -2.398004         1.070851
 H        -4.170716        -3.169127         0.178939
