19
Iteration:  4693
 C         1.747040        -0.521494         0.381221
 C         0.297069        -0.365618         0.612586
 C        -0.916276        -0.270169         0.625941
 C        -2.249408        -0.198455         1.053331
 C        -2.915655         1.126857         1.004318
 O        -3.114510        -1.055509         0.319871
 C        -2.704471        -2.425596         0.146351
 C        -3.414854        -3.016034        -0.977390
 O        -3.350355        -4.190709        -1.288656
 H         2.495717        -0.386021         1.177829
 H         2.186208        -1.375607        -0.006846
 H         1.910273         0.335892        -0.268136
 H        -2.310213        -0.549511         2.054209
 H        -2.442857         1.890706         1.664398
 H        -2.862913         1.556389         0.030377
 H        -4.001837         0.987807         1.232190
 H        -1.596741        -2.408847        -0.126956
 H        -2.922766        -2.977632         1.046680
 H        -4.013727        -2.294130        -1.584396
