19
Iteration:  3968charge 0 multiplicity 1
 C         1.167965        -1.483787        -0.486859
 C        -0.118150        -0.805207         0.143089
 C        -1.209289        -0.358157         0.557898
 C        -2.566918        -0.005178         1.051438
 C        -3.004518         1.504993         0.883392
 O        -3.582704        -0.911338         0.462276
 C        -3.208889        -2.339775         0.522777
 C        -2.386000        -2.739679        -0.661529
 O        -1.788167        -3.806667        -0.703029
 H         1.714972        -0.676547        -0.940454
 H         1.680429        -2.011427         0.299890
 H         0.706772        -2.227324        -1.050159
 H        -2.526305        -0.359592         2.147350
 H        -1.965829         1.875684         0.983831
 H        -3.464688         1.955412        -0.007672
 H        -3.601595         1.696253         1.832310
 H        -2.803246        -2.298704         1.561655
 H        -4.214543        -2.808348         0.391070
 H        -2.517373        -2.122191        -1.591152
