19
Iteration:  1154
 C         1.445912        -0.280357        -0.017785
 C         0.098610        -0.011146         0.398251
 C        -1.112791         0.198899         0.255727
 C        -2.582696         0.152577         0.289964
 C        -3.481632         0.984761        -0.660876
 O        -3.021379        -1.209511         0.050352
 C        -2.205256        -2.278601         0.507166
 C        -3.092754        -3.555200         0.458816
 O        -2.689378        -4.719402         0.571270
 H         2.055162         0.597098         0.196608
 H         1.915002        -1.175871         0.237981
 H         1.276202        -0.247165        -1.116442
 H        -2.995907         0.540721         1.253991
 H        -4.336896         1.270347        -0.067710
 H        -3.075099         1.872314        -1.152186
 H        -3.925159         0.393137        -1.548709
 H        -1.422950        -2.515566        -0.201089
 H        -1.663743        -2.265423         1.453993
 H        -4.132037        -3.357222         0.163402
