19
Iteration:  3221charge 0 multiplicity 1
 C         1.008635        -1.332394        -0.623197
 C        -0.021810        -0.447640         0.011027
 C        -1.186771        -0.131677         0.282208
 C        -2.447645         0.091403         0.931555
 C        -3.254455         1.494702         0.580778
 O        -3.364315        -0.967859         0.371007
 C        -3.144415        -2.322465         0.746729
 C        -2.366549        -3.038491        -0.360495
 O        -1.839344        -4.129403        -0.187805
 H         0.637862        -1.440087        -1.693223
 H         2.039230        -1.022622        -0.541411
 H         0.670317        -2.383411        -0.352686
 H        -2.379335        -0.066035         2.016420
 H        -3.034248         2.251570         1.357498
 H        -3.041513         1.854728        -0.465592
 H        -4.340184         1.274724         0.703120
 H        -2.681885        -2.563662         1.710970
 H        -4.087230        -2.881295         0.714028
 H        -2.389427        -2.418004        -1.289862
