19
Iteration:   717charge 0 multiplicity 1
 C         1.551611         0.105506        -0.245999
 C         0.136224         0.346729        -0.031823
 C        -1.001019         0.072150         0.372093
 C        -2.513692         0.068466         0.373153
 C        -3.169236         0.910974        -0.824166
 O        -3.062598        -1.327985         0.160551
 C        -2.614861        -2.399617         0.906414
 C        -3.001195        -3.709231         0.212418
 O        -2.973736        -4.767380         0.815301
 H         1.811669        -0.229618        -1.218435
 H         2.127994         1.001984        -0.076039
 H         1.831581        -0.631060         0.517871
 H        -2.869921         0.457965         1.330129
 H        -4.264952         1.053492        -0.664588
 H        -2.749167         1.928228        -1.001530
 H        -3.055587         0.468530        -1.769298
 H        -1.459954        -2.490142         0.986170
 H        -2.958838        -2.313339         1.939905
 H        -3.344781        -3.684611        -0.856469
