19
Iteration:    87charge 0 multiplicity 1
 C         1.724434         0.245307        -0.160463
 C         0.272126         0.474119        -0.164015
 C        -0.900307         0.197195        -0.120900
 C        -2.345768        -0.179372         0.030636
 C        -3.101941         0.534520        -1.039316
 O        -2.878000        -1.520969        -0.088915
 C        -2.773976        -2.117826         1.145210
 C        -3.584090        -3.584797         1.016557
 O        -3.029151        -4.689595         0.969730
 H         2.332552         1.130533        -0.342938
 H         1.955412        -0.072258         0.885661
 H         1.909076        -0.514596        -0.991368
 H        -2.529211         0.196892         1.071386
 H        -4.080071         0.756706        -0.615717
 H        -2.694034         1.483882        -1.331658
 H        -3.174543        -0.230127        -1.833144
 H        -1.728916        -2.486274         1.337869
 H        -3.067802        -1.466407         2.036375
 H        -4.744911        -3.483745         1.127805
