19
Iteration:  1198
 C         1.367195        -0.184244         0.149264
 C         0.012187         0.174898        -0.047597
 C        -1.144246         0.281191         0.212432
 C        -2.497210         0.066051         0.425217
 C        -3.301556         0.909236        -0.553958
 O        -3.028076        -1.202268         0.184697
 C        -2.209307        -2.432049         0.331874
 C        -3.091066        -3.581227         0.346452
 O        -2.826164        -4.700114         0.657473
 H         2.135802         0.434875        -0.286527
 H         1.574998        -0.210511         1.171131
 H         1.510029        -1.207543        -0.239830
 H        -2.629563         0.315390         1.529307
 H        -4.271540         0.430239        -0.737969
 H        -3.206666         1.969789        -0.311467
 H        -2.784672         0.801869        -1.566816
 H        -1.654631        -2.607100        -0.592928
 H        -1.364283        -2.384927         0.990324
 H        -4.130972        -3.124008         0.143893
