19
Iteration:  4666
 C         1.776056        -0.607611         0.247761
 C         0.274262        -0.445136         0.531083
 C        -0.873129        -0.226578         0.913928
 C        -2.341654        -0.168433         1.111368
 C        -3.081048         1.273286         0.946669
 O        -3.120981        -1.084551         0.290122
 C        -2.518029        -2.458408         0.214425
 C        -3.282328        -3.021099        -0.990160
 O        -3.439534        -4.180035        -1.313054
 H         2.479249        -1.059259         0.954260
 H         2.175712        -1.117412        -0.712897
 H         2.010783         0.466410         0.142175
 H        -2.555775        -0.569025         2.158549
 H        -2.879760         2.021715         1.695987
 H        -2.786001         1.619050        -0.109060
 H        -4.132891         1.086176         0.875769
 H        -1.450589        -2.417108         0.000498
 H        -2.719401        -2.929907         1.227591
 H        -3.500816        -2.226992        -1.687839
