19
Iteration:   925
 C         1.379521        -0.060646        -0.396729
 C         0.074218        -0.125213         0.234058
 C        -1.129138        -0.087410         0.414818
 C        -2.692507        -0.018596         0.354238
 C        -3.086986         1.096239        -0.637655
 O        -3.120565        -1.284547        -0.123789
 C        -2.822681        -2.237649         0.913206
 C        -2.575762        -3.528094         0.188375
 O        -2.718925        -4.560560         0.867583
 H         1.684181         0.903329        -0.831266
 H         2.078912        -0.290697         0.401297
 H         1.535441        -0.928362        -1.138526
 H        -3.169919         0.233397         1.339144
 H        -3.862490         1.630530        -0.221395
 H        -2.262072         1.725393        -0.963969
 H        -3.435283         0.592350        -1.548969
 H        -1.848932        -2.043695         1.507193
 H        -3.732019        -2.476890         1.542314
 H        -2.170599        -3.510118        -0.887358
