19
Iteration:   389charge 0 multiplicity 1
 C         1.548193         0.186123         0.161528
 C         0.111062         0.022417         0.131674
 C        -1.098149         0.156171         0.069588
 C        -2.507284        -0.148758         0.119479
 C        -3.479432         0.744677        -0.657405
 O        -2.871768        -1.408241        -0.353338
 C        -2.052253        -2.426366         0.179000
 C        -3.013859        -3.581432         0.531019
 O        -3.283279        -4.304857         1.492758
 H         1.757641         1.095144        -0.371466
 H         2.070041         0.090495         1.120501
 H         1.978759        -0.725393        -0.416639
 H        -2.624318        -0.085142         1.182739
 H        -3.631703         0.195741        -1.530808
 H        -4.453099         0.923459        -0.207500
 H        -3.042109         1.726833        -0.924980
 H        -1.186507        -2.739953        -0.402162
 H        -1.666446        -2.166567         1.208043
 H        -3.685070        -3.552414        -0.358974
