19
Iteration:  1994charge 0 multiplicity 1
 C         1.303635        -0.808628        -0.291665
 C        -0.100910        -0.451934        -0.092278
 C        -1.234219        -0.087668         0.082847
 C        -2.578425         0.248112         0.583193
 C        -3.362687         1.187536        -0.491501
 O        -3.383871        -0.988205         0.846950
 C        -2.879671        -2.291193         1.178661
 C        -2.442826        -3.233411        -0.029927
 O        -2.043137        -4.421667        -0.117760
 H         1.959246        -0.023278         0.280346
 H         1.501724        -1.797386         0.116393
 H         1.482983        -0.709783        -1.364201
 H        -2.400666         0.650557         1.598069
 H        -4.100448         1.857630        -0.084183
 H        -2.642790         1.837046        -0.830009
 H        -3.757861         0.575992        -1.337348
 H        -2.222076        -2.233627         2.033612
 H        -3.726166        -2.873870         1.478355
 H        -2.560043        -2.686792        -0.899965
