19
Iteration:  1911charge 0 multiplicity 1
 C         1.427437        -0.367442        -0.262099
 C        -0.051088        -0.525433        -0.037570
 C        -1.178194        -0.110571         0.199941
 C        -2.551509         0.169500         0.435400
 C        -3.300674         1.144945        -0.572684
 O        -3.241032        -1.060868         0.796800
 C        -2.561480        -2.297552         1.171892
 C        -2.800961        -3.360709        -0.005351
 O        -2.480506        -4.537498        -0.028330
 H         2.026046        -1.013617         0.306163
 H         1.713430        -0.479534        -1.349642
 H         1.787010         0.646673        -0.017044
 H        -2.514664         0.838616         1.375395
 H        -4.375988         1.001001        -0.364575
 H        -2.859282         2.196304        -0.411155
 H        -3.176482         0.944976        -1.696326
 H        -1.473747        -2.040860         1.303652
 H        -2.959881        -2.707666         2.156388
 H        -3.277575        -2.868932        -0.818515
