19
Iteration:  3150
 C         1.109786        -1.057298        -0.606316
 C        -0.252941        -0.873790        -0.268053
 C        -1.243858        -0.358725         0.152673
 C        -2.450671         0.053251         0.870774
 C        -2.973448         1.461072         0.657881
 O        -3.557009        -0.931545         0.418111
 C        -3.307400        -2.284045         0.775308
 C        -2.377623        -3.023518        -0.270701
 O        -1.676726        -3.983642        -0.104590
 H         1.670888        -0.111282        -0.715321
 H         1.603084        -1.628521         0.243949
 H         1.125529        -1.465833        -1.597478
 H        -2.252718        -0.003906         1.966848
 H        -3.881099         1.505319         1.265776
 H        -2.234321         2.259376         0.922554
 H        -3.274912         1.632972        -0.350949
 H        -2.909690        -2.313821         1.846807
 H        -4.324074        -2.787183         0.878564
 H        -2.660932        -2.646741        -1.307233
