19
Iteration:  1097charge 0 multiplicity 1
 C         1.494389        -0.127972         0.014381
 C         0.113130         0.044278        -0.172609
 C        -1.049432        -0.023471         0.303486
 C        -2.578120         0.029966         0.299117
 C        -3.237900         1.173186        -0.594041
 O        -3.162112        -1.253174        -0.098456
 C        -2.684643        -2.285873         0.890895
 C        -3.160534        -3.672998         0.494925
 O        -2.406956        -4.663284         0.531058
 H         1.631974        -0.366794         1.060677
 H         1.858281        -0.862648        -0.678227
 H         2.129794         0.769526        -0.160796
 H        -3.002690         0.174527         1.330286
 H        -4.063925         1.708347        -0.067401
 H        -2.489565         1.967305        -0.855401
 H        -3.738278         0.551970        -1.441899
 H        -1.633694        -2.347743         0.732758
 H        -2.969871        -2.037761         1.969922
 H        -4.220963        -3.762459         0.272017
