19
Iteration:  2241charge 0 multiplicity 1
 C         1.127910        -1.241518        -0.838614
 C        -0.174021        -0.866458        -0.217798
 C        -1.203008        -0.202513         0.231038
 C        -2.625187         0.001725         0.769550
 C        -3.333517         1.394070         0.467629
 O        -3.421165        -0.945638        -0.009281
 C        -3.419397        -2.302234         0.503980
 C        -2.117923        -2.934997         0.077680
 O        -1.526244        -3.828398         0.743298
 H         1.772996        -1.321716         0.042127
 H         1.067259        -2.243664        -1.385287
 H         1.511534        -0.411396        -1.593533
 H        -2.730249        -0.292309         1.831364
 H        -4.191565         1.530021         1.204454
 H        -2.714899         2.261809         0.409675
 H        -3.736482         1.363498        -0.650393
 H        -3.681611        -2.455357         1.541292
 H        -4.161789        -2.663817        -0.199566
 H        -1.851438        -2.746568        -0.930747
