19
Iteration:  4686
 C         1.748524        -0.475702         0.328564
 C         0.348856        -0.460356         0.610204
 C        -0.859309        -0.255041         0.664772
 C        -2.322779        -0.162721         1.090752
 C        -2.983032         1.151458         0.978751
 O        -3.117207        -1.072628         0.300882
 C        -2.662990        -2.370329         0.197237
 C        -3.333110        -3.029509        -0.990889
 O        -3.400329        -4.201851        -1.312544
 H         2.310131        -0.644583         1.300740
 H         1.990779        -1.505355        -0.217214
 H         2.188034         0.386405        -0.263187
 H        -2.474269        -0.475086         2.204367
 H        -2.534970         1.709240         1.780386
 H        -2.818605         1.572074        -0.097814
 H        -4.054342         1.037852         1.183321
 H        -1.605968        -2.259186         0.049110
 H        -2.784196        -3.121200         1.067004
 H        -4.044182        -2.286510        -1.500370
