19
Iteration:  4722
 C         1.858648        -0.410171         0.531039
 C         0.327818        -0.216875         0.463900
 C        -0.905291        -0.314161         0.606612
 C        -2.274481        -0.275383         1.039608
 C        -2.761512         1.125355         1.107384
 O        -3.190668        -1.037653         0.264931
 C        -2.869619        -2.413336         0.093122
 C        -3.551225        -3.093068        -0.992183
 O        -3.283847        -4.241919        -1.306359
 H         2.390008         0.382710         1.160243
 H         2.258205        -1.489635         0.795065
 H         2.287804        -0.207577        -0.470275
 H        -2.299479        -0.718424         2.136658
 H        -1.919596         1.778552         1.437714
 H        -2.906859         1.511571         0.109193
 H        -3.646684         1.326039         1.690038
 H        -1.790377        -2.569812        -0.113002
 H        -3.104365        -3.029778         1.005039
 H        -4.446656        -2.543477        -1.415472
