19
Iteration:  3988
 C         1.013655        -1.372390        -0.378154
 C        -0.164113        -0.879582         0.163949
 C        -1.255038        -0.456679         0.395333
 C        -2.489518        -0.106774         1.066405
 C        -2.823847         1.406163         0.839445
 O        -3.617307        -0.850333         0.577526
 C        -3.235307        -2.311155         0.493804
 C        -2.415755        -2.684456        -0.700821
 O        -1.751696        -3.715701        -0.679929
 H         1.298902        -0.577918        -1.134597
 H         1.790326        -1.309660         0.464337
 H         0.937085        -2.390563        -0.754698
 H        -2.478543        -0.439193         2.133747
 H        -1.894568         2.028002         0.984749
 H        -3.193485         1.475783        -0.227089
 H        -3.781021         1.525920         1.383517
 H        -2.607344        -2.531543         1.409578
 H        -4.189827        -2.853267         0.433368
 H        -2.376803        -2.194589        -1.710304
