19
Iteration:  2522charge 0 multiplicity 1
 C         1.355091        -0.487651        -0.582614
 C        -0.107304        -0.195265        -0.318152
 C        -1.108275         0.077533         0.257035
 C        -2.447268         0.228178         0.845163
 C        -3.219115         1.285311         0.075941
 O        -3.000918        -1.094068         0.313237
 C        -2.849885        -2.368017         0.985141
 C        -2.470329        -3.561583         0.021101
 O        -2.880095        -4.674108         0.093673
 H         1.937951        -0.366942         0.308073
 H         1.683448        -1.453269        -0.971464
 H         1.775862         0.333828        -1.244031
 H        -2.493723         0.304616         1.956296
 H        -4.229792         1.507434         0.386760
 H        -2.672827         2.203122         0.065823
 H        -3.189008         0.991881        -1.014679
 H        -2.026596        -2.240036         1.648663
 H        -3.699116        -2.672365         1.569347
 H        -1.684345        -3.277709        -0.700596
