19
Iteration:  2310
 C         1.206975        -0.749451        -0.740412
 C        -0.222794        -0.446386        -0.388785
 C        -1.206368        -0.411554         0.266049
 C        -2.531632        -0.093049         0.639374
 C        -2.896558         1.365569         0.408436
 O        -3.515089        -0.987633         0.075281
 C        -3.461658        -2.342375         0.565680
 C        -2.299426        -3.252846         0.021519
 O        -1.821946        -4.038511         0.761396
 H         1.736042         0.269264        -0.768337
 H         1.625045        -1.229278         0.150009
 H         1.382207        -1.296875        -1.662102
 H        -2.581801        -0.214922         1.740384
 H        -3.981360         1.375177         0.254830
 H        -2.549753         2.106638         1.235438
 H        -2.390096         1.679674        -0.506110
 H        -3.381401        -2.325494         1.636556
 H        -4.339561        -2.916954         0.239243
 H        -2.027053        -3.068311        -1.039429
