19
Iteration:  1114
 C         1.495380        -0.161048         0.003144
 C         0.006254        -0.076075         0.070193
 C        -1.215114         0.033817         0.194414
 C        -2.655433         0.049246         0.293417
 C        -3.242935         1.135402        -0.604428
 O        -3.094514        -1.311593        -0.050501
 C        -2.449733        -2.255528         0.758005
 C        -3.110144        -3.576537         0.521118
 O        -2.492823        -4.652137         0.523264
 H         2.011529         0.015927         1.005665
 H         1.899084        -1.117581        -0.506455
 H         1.860517         0.684244        -0.622649
 H        -2.891522         0.175655         1.358407
 H        -3.848198         1.773918         0.072960
 H        -2.475563         1.873936        -0.875469
 H        -3.716416         0.747394        -1.455660
 H        -1.331116        -2.308555         0.563680
 H        -2.680832        -1.873489         1.768781
 H        -4.218800        -3.571713         0.218660
