19
Iteration:  4995charge 0 multiplicity 1
 C         1.829133        -0.108824         0.656580
 C         0.377040        -0.130042         0.687561
 C        -0.846963        -0.302641         0.611034
 C        -2.261440        -0.468972         1.021972
 C        -2.744481         0.860109         1.412707
 O        -2.995206        -1.141658        -0.059621
 C        -2.525472        -2.377093        -0.241403
 C        -3.409574        -3.108934        -1.327981
 O        -3.992725        -4.112911        -0.944987
 H         2.329470         0.884549         0.780575
 H         2.276749        -0.797368         1.374246
 H         2.243987        -0.458965        -0.321450
 H        -2.268018        -1.045735         1.949882
 H        -2.637486         0.998772         2.518552
 H        -2.348677         1.690765         0.820082
 H        -3.827853         1.052975         1.107360
 H        -1.449762        -2.292215        -0.488796
 H        -2.729485        -2.990152         0.625338
 H        -3.694309        -2.537519        -2.269344
