19
Iteration:  4769
 C         1.765485        -0.139376         0.510720
 C         0.395162        -0.401819         0.604750
 C        -0.823764        -0.391298         0.591149
 C        -2.252544        -0.373623         1.024477
 C        -2.669308         1.153347         1.178431
 O        -3.064871        -1.034081         0.061153
 C        -2.847523        -2.425981         0.109935
 C        -3.808867        -3.171338        -0.924634
 O        -3.312465        -4.190826        -1.351699
 H         1.928273         0.887953         0.056441
 H         2.334069        -0.202132         1.522821
 H         2.446406        -0.860713        -0.066589
 H        -2.488201        -0.878137         2.073890
 H        -1.932065         1.744710         1.721625
 H        -2.815307         1.773786         0.290981
 H        -3.587099         1.178959         1.818211
 H        -1.726730        -2.773143         0.095901
 H        -3.282987        -2.789664         1.065501
 H        -4.814059        -2.692612        -1.212801
