19
Iteration:  4017
 C         1.192805        -1.314178        -0.363825
 C        -0.170839        -0.940763         0.013788
 C        -1.250002        -0.614593         0.453190
 C        -2.534800        -0.131765         1.096755
 C        -2.764659         1.386178         0.727653
 O        -3.673814        -0.899796         0.709296
 C        -3.361488        -2.323851         0.495852
 C        -2.450144        -2.633038        -0.657137
 O        -1.720724        -3.577055        -0.713771
 H         1.283482        -1.062273        -1.423281
 H         1.812925        -0.573396         0.194005
 H         1.404267        -2.372338         0.007868
 H        -2.529524        -0.361125         2.161284
 H        -2.120985         2.114092         1.271559
 H        -2.509837         1.422275        -0.346439
 H        -3.790331         1.593269         0.918743
 H        -3.046443        -2.735935         1.438807
 H        -4.320610        -2.697865         0.139653
 H        -2.639841        -2.017738        -1.579335
