19
Iteration:  1633
 C         1.718347         0.491715        -0.217366
 C         0.298069         0.216521         0.114226
 C        -0.945750         0.090528         0.273646
 C        -2.350610        -0.160796         0.530052
 C        -3.348008         0.844432        -0.150908
 O        -2.909266        -1.354732        -0.051436
 C        -2.197074        -2.596942         0.052713
 C        -3.323983        -3.661219         0.222667
 O        -3.522816        -4.608079         1.004739
 H         2.444871        -0.075934         0.422758
 H         1.913957         0.181880        -1.221632
 H         2.015283         1.559207        -0.187167
 H        -2.502341        -0.289234         1.605279
 H        -3.042787         1.913699        -0.242180
 H        -3.537817         0.261157        -1.145803
 H        -4.286445         0.907786         0.407558
 H        -1.746347        -2.691797        -0.936170
 H        -1.312206        -2.721548         0.753305
 H        -4.115338        -3.553320        -0.660286
