19
Iteration:   379charge 0 multiplicity 1
 C         1.573321         0.130202         0.192354
 C         0.139121         0.193955         0.056407
 C        -1.087316         0.170444         0.023658
 C        -2.503818        -0.158950         0.146554
 C        -3.463851         0.738063        -0.666768
 O        -2.901453        -1.476858        -0.352963
 C        -2.068264        -2.488958         0.234659
 C        -3.088240        -3.538245         0.528872
 O        -3.230505        -4.285773         1.479138
 H         2.092006         1.021869        -0.040280
 H         1.887477        -0.149474         1.199069
 H         1.885481        -0.624885        -0.597786
 H        -2.856816        -0.196834         1.171416
 H        -3.407811         0.506271        -1.707403
 H        -4.434992         0.520052        -0.269216
 H        -3.113648         1.771830        -0.493274
 H        -1.244082        -2.676066        -0.468030
 H        -1.704448        -2.126158         1.254873
 H        -3.865204        -3.614406        -0.312198
