19
Iteration:  2563
 C         1.360016        -0.555314        -0.697567
 C         0.137998        -0.160085         0.018646
 C        -1.029525         0.193243         0.374395
 C        -2.480201         0.091466         0.722846
 C        -3.327020         1.066977        -0.027886
 O        -3.139263        -1.189287         0.370376
 C        -2.670210        -2.313854         1.037315
 C        -2.470774        -3.382268        -0.001095
 O        -2.989066        -4.478563        -0.006149
 H         2.128274         0.270528        -0.572206
 H         1.637641        -1.555150        -0.356878
 H         1.238164        -0.641776        -1.771865
 H        -2.585300         0.259679         1.797422
 H        -4.181918         1.328577         0.625948
 H        -2.830252         1.960137        -0.265261
 H        -3.635352         0.557037        -1.000343
 H        -1.659565        -2.290299         1.545433
 H        -3.302181        -2.683154         1.874417
 H        -1.859521        -3.010667        -0.899393
