19
Iteration:  4965
 C         1.818444        -0.111063         0.602321
 C         0.378194        -0.115332         0.607552
 C        -0.809991        -0.405581         0.782382
 C        -2.255716        -0.437196         1.005502
 C        -2.823041         0.846964         1.408004
 O        -2.942732        -1.053170        -0.146450
 C        -2.536005        -2.341450        -0.189511
 C        -3.339436        -3.151379        -1.227725
 O        -4.066241        -4.102862        -0.980040
 H         2.290953         0.404555         1.437531
 H         2.320213        -1.124701         0.539587
 H         2.204429         0.338971        -0.336470
 H        -2.502756        -1.132323         1.896040
 H        -2.545570         1.057995         2.434984
 H        -2.545791         1.670944         0.632394
 H        -3.944304         0.716139         1.327040
 H        -1.414761        -2.358196        -0.450573
 H        -2.520408        -2.898637         0.829144
 H        -3.282678        -2.796662        -2.281087
