19
Iteration:   489
 C         1.555947         0.446183         0.001159
 C         0.137684         0.296615         0.142679
 C        -1.058863         0.188934         0.128883
 C        -2.495276        -0.110142         0.159981
 C        -3.188568         0.956285        -0.784891
 O        -2.843069        -1.499522        -0.142456
 C        -2.263369        -2.626241         0.506535
 C        -3.193502        -3.837666         0.324013
 O        -3.299321        -4.547671         1.327256
 H         1.930075        -0.526841        -0.349337
 H         1.797721         1.217071        -0.766506
 H         2.111116         0.684137         1.028242
 H        -2.815188         0.000105         1.196821
 H        -4.059717         1.511606        -0.316501
 H        -2.542764         1.754537        -1.140977
 H        -3.625106         0.427136        -1.620362
 H        -1.263567        -2.893479         0.147875
 H        -2.159416        -2.534429         1.649266
 H        -3.887367        -3.877772        -0.576526
