19
Iteration:  3093charge 0 multiplicity 1
 C         1.168562        -0.988142        -0.788637
 C        -0.044971        -0.505010        -0.189537
 C        -1.157444        -0.621164         0.323941
 C        -2.498463        -0.150891         0.866414
 C        -2.876156         1.300889         0.456915
 O        -3.607458        -0.936444         0.561873
 C        -3.486524        -2.286037         0.744717
 C        -2.437574        -2.932696        -0.239296
 O        -1.713226        -3.866727        -0.006599
 H         2.004019        -0.837136        -0.164887
 H         0.946940        -2.021513        -1.118886
 H         1.277730        -0.482286        -1.790912
 H        -2.442337         0.004883         1.959880
 H        -3.945169         1.284377         0.222146
 H        -2.744227         1.984024         1.339094
 H        -2.320119         1.643958        -0.419409
 H        -3.286005        -2.541846         1.813780
 H        -4.421844        -2.720244         0.299441
 H        -2.776340        -2.460340        -1.191044
