19
Iteration:   980charge 0 multiplicity 1
 C         1.485633         0.077222        -0.261232
 C         0.109218        -0.043177        -0.055649
 C        -1.090122        -0.099143         0.268867
 C        -2.581954         0.031844         0.319047
 C        -2.876261         1.201228        -0.640938
 O        -3.338875        -1.237950         0.130993
 C        -3.031889        -2.383123         0.887910
 C        -2.794007        -3.665652         0.188129
 O        -2.548568        -4.694047         0.856344
 H         1.697382        -0.077086        -1.326300
 H         1.830608         1.049850         0.031889
 H         2.140643        -0.748841         0.182376
 H        -2.849254         0.369112         1.333727
 H        -3.827241         1.210799        -1.035744
 H        -2.803999         2.135356        -0.166901
 H        -2.270227         1.057258        -1.531924
 H        -2.328083        -2.325274         1.739753
 H        -4.015500        -2.663751         1.343831
 H        -2.877166        -3.752977        -0.898518
