19
Iteration:  2574
 C         1.342875        -0.525810        -0.700244
 C         0.187835        -0.092736         0.082207
 C        -1.050737         0.022309         0.286992
 C        -2.497747         0.041864         0.770552
 C        -3.325991         1.068015        -0.029262
 O        -3.179783        -1.198274         0.338153
 C        -2.573613        -2.286107         1.111564
 C        -2.540985        -3.332170         0.032813
 O        -2.976103        -4.444397        -0.059459
 H         2.325337         0.018109        -0.809444
 H         1.790045        -1.331682        -0.115439
 H         0.952656        -0.917487        -1.627945
 H        -2.598478         0.043340         1.853603
 H        -4.361013         1.239247         0.324945
 H        -2.828140         1.959990        -0.236425
 H        -3.545326         0.558251        -1.044896
 H        -1.473125        -1.954311         1.247771
 H        -3.192236        -2.425139         2.018837
 H        -1.936746        -2.861236        -0.800915
