19
Iteration:  2214charge 0 multiplicity 1
 C         0.928460        -1.376134        -0.689707
 C        -0.240803        -0.620115        -0.333186
 C        -1.233994        -0.260472         0.292896
 C        -2.528349         0.007750         0.695130
 C        -3.276687         1.272670         0.415418
 O        -3.517376        -0.906409         0.103229
 C        -3.277185        -2.248119         0.434506
 C        -2.034823        -3.055373        -0.075379
 O        -1.497707        -3.687487         0.769882
 H         1.099987        -2.143927         0.120269
 H         0.692781        -1.983737        -1.558108
 H         1.734173        -0.685978        -0.812951
 H        -2.656720        -0.161443         1.798924
 H        -3.931705         1.401140         1.231088
 H        -2.691353         2.228101         0.301540
 H        -3.828176         1.144142        -0.438949
 H        -3.079023        -2.402874         1.542277
 H        -4.250252        -2.757811         0.141692
 H        -1.706006        -2.952833        -1.240160
