19
Iteration:  1216charge 0 multiplicity 1
 C         1.466629        -0.088655         0.216566
 C         0.073218         0.160766        -0.107330
 C        -1.171347         0.103932         0.043943
 C        -2.614801         0.083109         0.416602
 C        -3.267955         1.100758        -0.520356
 O        -3.046149        -1.326810         0.269080
 C        -2.138493        -2.398672         0.257587
 C        -3.168467        -3.621537         0.364599
 O        -2.851671        -4.725334         0.689661
 H         2.142437         0.292752        -0.563919
 H         1.801009         0.401479         1.200517
 H         1.700651        -1.179028         0.242487
 H        -2.801414         0.291981         1.461451
 H        -4.115997         0.582589        -0.928781
 H        -3.514392         1.942625         0.118485
 H        -2.629324         1.355749        -1.424318
 H        -1.527039        -2.256470        -0.705867
 H        -1.520656        -2.467984         1.196288
 H        -4.174890        -3.429645        -0.058847
