19
Iteration:  1469charge 0 multiplicity 1
 C         1.773091         0.666302        -0.239818
 C         0.309135         0.454523        -0.028640
 C        -0.838816         0.075403         0.210442
 C        -2.272819        -0.182488         0.448729
 C        -3.233876         0.839066        -0.172106
 O        -2.800140        -1.462516        -0.058176
 C        -2.689237        -2.592047         0.730306
 C        -3.338098        -3.778658         0.034189
 O        -3.485661        -4.711065         0.745822
 H         2.013290         1.608172        -0.825400
 H         2.389547         0.719308         0.660016
 H         2.194762        -0.183960        -0.877993
 H        -2.430477        -0.174594         1.556894
 H        -4.228171         0.642837         0.190540
 H        -2.720654         1.787461        -0.011772
 H        -3.340431         0.677341        -1.205873
 H        -1.700144        -2.833771         1.118589
 H        -3.363715        -2.618000         1.623508
 H        -3.617669        -3.859996        -1.099589
