19
Iteration:  3558
 C         0.997008        -0.930001        -0.638700
 C        -0.124800        -0.506486         0.100717
 C        -1.112854        -0.286230         0.766839
 C        -2.515300         0.087213         1.011297
 C        -2.997225         1.470368         0.690205
 O        -3.302067        -0.923523         0.206025
 C        -3.023898        -2.298660         0.552303
 C        -2.223613        -3.136555        -0.454439
 O        -2.376194        -4.324349        -0.361468
 H         1.085511        -2.079484        -0.815739
 H         0.999787        -0.499296        -1.715001
 H         1.967975        -0.550514        -0.347442
 H        -2.712936        -0.346266         2.012745
 H        -2.198370         2.227523         0.861051
 H        -3.360922         1.371874        -0.385019
 H        -3.780435         1.750631         1.394467
 H        -2.631132        -2.276977         1.547957
 H        -4.002468        -2.721132         0.577505
 H        -1.353219        -2.907083        -1.072686
