19
Iteration:  2789charge 0 multiplicity 1
 C         1.294922        -0.414320        -0.681997
 C         0.008331        -0.269485        -0.128323
 C        -1.119376        -0.410061         0.377665
 C        -2.443419        -0.012781         0.697195
 C        -3.012770         1.236616        -0.005720
 O        -3.367961        -1.105602         0.704938
 C        -2.796477        -2.316044         1.094817
 C        -2.752073        -3.226344        -0.176484
 O        -2.506976        -4.398021        -0.167073
 H         2.036425        -0.754294         0.065264
 H         1.308979        -1.329159        -1.377249
 H         1.814291         0.349122        -1.243778
 H        -2.269768         0.354131         1.736646
 H        -4.106228         1.352526         0.232422
 H        -2.625922         2.074992         0.564695
 H        -2.862387         1.495539        -1.131911
 H        -1.795066        -2.213662         1.610677
 H        -3.469243        -2.869939         1.879391
 H        -3.038146        -2.669759        -1.142039
