19
Iteration:  4146charge 0 multiplicity 1
 C         1.202488        -1.215357        -0.203147
 C        -0.167620        -0.827991         0.211605
 C        -1.196135        -0.362882         0.671485
 C        -2.482187        -0.011245         1.165587
 C        -2.844131         1.365621         0.785807
 O        -3.399778        -0.890107         0.456267
 C        -3.028985        -2.327867         0.566444
 C        -2.585186        -2.778716        -0.749611
 O        -2.218930        -3.905653        -1.068146
 H         1.652420        -1.699225         0.658214
 H         1.144989        -1.894033        -1.009665
 H         1.864079        -0.377454        -0.526723
 H        -2.705765        -0.276851         2.243794
 H        -2.159748         2.125130         1.089051
 H        -3.087160         1.428013        -0.305031
 H        -3.820663         1.599282         1.261962
 H        -2.290430        -2.637377         1.348963
 H        -3.919177        -2.928482         0.945637
 H        -2.405658        -1.896053        -1.407330
