19
Iteration:  2220charge 0 multiplicity 1
 C         0.972955        -1.365922        -0.692285
 C        -0.277384        -0.685870        -0.354045
 C        -1.146459        -0.251509         0.337696
 C        -2.550216         0.032113         0.703360
 C        -3.315659         1.253719         0.427006
 O        -3.515913        -0.915780         0.092426
 C        -3.279767        -2.238801         0.414246
 C        -2.081890        -3.004340        -0.062583
 O        -1.511743        -3.711066         0.778068
 H         1.414800        -1.940454         0.124404
 H         0.840626        -1.933326        -1.642861
 H         1.746443        -0.621680        -1.082824
 H        -2.550273        -0.170216         1.780666
 H        -4.007819         1.370058         1.317300
 H        -2.710755         2.121674         0.258431
 H        -3.942398         1.161249        -0.569856
 H        -3.119826        -2.399901         1.476174
 H        -4.238048        -2.636529         0.097567
 H        -1.670264        -2.971666        -1.033610
