19
Iteration:  4306
 C         1.483909        -0.748499        -0.104226
 C         0.193643        -0.599441         0.509935
 C        -0.962793        -0.358028         0.880650
 C        -2.387265        -0.074024         1.122967
 C        -2.787359         1.413795         0.894130
 O        -3.361145        -0.886286         0.302378
 C        -3.295812        -2.359252         0.376281
 C        -2.741389        -3.081801        -0.905870
 O        -2.750189        -4.264437        -1.136518
 H         1.380666        -0.746583        -1.195078
 H         2.073535         0.174430         0.128618
 H         2.044714        -1.607394         0.216413
 H        -2.733075        -0.423628         2.129421
 H        -2.089900         2.090467         1.319587
 H        -2.999781         1.485946        -0.194944
 H        -3.745594         1.573596         1.420247
 H        -2.553734        -2.526706         1.242115
 H        -4.356533        -2.783165         0.445708
 H        -2.133314        -2.344322        -1.566209
