19
Iteration:  1257
 C         1.717474         0.204423         0.119719
 C         0.153042        -0.093072         0.183324
 C        -1.056543        -0.044218        -0.070180
 C        -2.464772         0.047089         0.328620
 C        -3.328882         1.030142        -0.328758
 O        -3.211508        -1.156878         0.106711
 C        -2.431909        -2.365776         0.371428
 C        -3.234563        -3.738741         0.217633
 O        -2.799610        -4.705535         0.766844
 H         1.984639        -0.277421        -0.846895
 H         1.913841         1.355159         0.075974
 H         2.292498        -0.280344         0.926997
 H        -2.373981         0.261550         1.437945
 H        -3.975149         0.419316        -1.011337
 H        -4.103791         1.567118         0.236624
 H        -2.819361         1.688193        -1.037812
 H        -1.841302        -2.570583        -0.522379
 H        -1.860416        -2.321280         1.332584
 H        -4.144232        -3.746255        -0.491523
