19
Iteration:  1007charge 0 multiplicity 1
 C         1.578811         0.149669        -0.173028
 C         0.201015        -0.213391        -0.127992
 C        -1.022281        -0.218925         0.181693
 C        -2.528028         0.000355         0.407116
 C        -3.110190         0.919155        -0.545175
 O        -3.191567        -1.200010         0.016834
 C        -3.176067        -2.254131         1.002939
 C        -2.890348        -3.511493         0.251865
 O        -2.512494        -4.554767         0.703181
 H         1.992544        -0.474055        -1.008048
 H         1.750469         1.239964        -0.479988
 H         2.189473        -0.102169         0.663329
 H        -2.723190         0.282347         1.488188
 H        -4.076589         0.373041        -1.005953
 H        -3.438396         1.963310        -0.189260
 H        -2.558258         1.028987        -1.491433
 H        -2.281556        -2.261543         1.717099
 H        -4.095411        -2.249017         1.630897
 H        -2.974395        -3.404787        -0.880283
