19
Iteration:   343charge 0 multiplicity 1
 C         1.479339         0.105436         0.207686
 C         0.135772         0.354693        -0.044484
 C        -1.047930         0.221494        -0.073084
 C        -2.438496        -0.090744         0.109504
 C        -3.378624         0.902998        -0.647507
 O        -2.747935        -1.449178        -0.441142
 C        -2.230618        -2.535550         0.289249
 C        -3.278284        -3.728068         0.610568
 O        -3.143846        -4.443753         1.574600
 H         2.015011         0.928402         0.782612
 H         1.587564        -0.894848         0.660263
 H         2.012746        -0.008219        -0.750433
 H        -2.614917        -0.020869         1.147615
 H        -2.968892         1.722873        -1.182773
 H        -4.014309         0.321164        -1.355784
 H        -4.115108         1.265959         0.046066
 H        -1.328024        -2.995640        -0.150488
 H        -1.859212        -2.180970         1.260992
 H        -4.193602        -3.826937        -0.076227
