19
Iteration:  4767
 C         1.777992        -0.154459         0.528518
 C         0.405381        -0.399718         0.576871
 C        -0.840788        -0.396808         0.586046
 C        -2.268052        -0.359365         1.037372
 C        -2.667715         1.178390         1.177857
 O        -3.068689        -1.026800         0.070291
 C        -2.845672        -2.438904         0.105627
 C        -3.800281        -3.186961        -0.918257
 O        -3.310929        -4.196980        -1.359596
 H         1.988023         0.876390         0.147225
 H         2.387355        -0.165021         1.531452
 H         2.365321        -0.809412        -0.152797
 H        -2.461368        -0.860943         2.066610
 H        -1.870721         1.735749         1.742182
 H        -2.872666         1.729533         0.322453
 H        -3.566641         1.149961         1.826507
 H        -1.788552        -2.715888         0.073180
 H        -3.311483        -2.755236         1.075250
 H        -4.797232        -2.721813        -1.276305
