19
Iteration:  3686
 C         1.400909        -0.741938        -0.356852
 C        -0.008168        -0.657757         0.023177
 C        -1.210706        -0.511405         0.135463
 C        -2.349874        -0.070119         0.892172
 C        -2.788033         1.389183         0.813232
 O        -3.665364        -0.898898         0.502142
 C        -3.395711        -2.345496         0.547103
 C        -2.633091        -3.048804        -0.540164
 O        -2.052835        -4.090124        -0.352909
 H         1.833431         0.187354        -0.603264
 H         1.959579        -1.309710         0.389824
 H         1.538883        -1.235542        -1.344085
 H        -2.056910        -0.474761         1.850056
 H        -1.931720         1.929891         1.240409
 H        -2.948924         1.808568        -0.211434
 H        -3.658104         1.413183         1.421651
 H        -3.252670        -2.623150         1.621149
 H        -4.476039        -2.719495         0.510181
 H        -2.550558        -2.516451        -1.526921
