19
Iteration:  1820charge 0 multiplicity 1
 C         1.537618        -0.065101        -0.414746
 C         0.131916        -0.094142         0.152686
 C        -1.068075         0.107022         0.278374
 C        -2.502357         0.087943         0.558349
 C        -3.184045         0.972388        -0.481816
 O        -3.108096        -1.140845         0.459575
 C        -2.573198        -2.381295         0.890887
 C        -3.077132        -3.531476         0.041256
 O        -2.818779        -4.725427         0.304023
 H         1.390969        -0.239178        -1.521855
 H         1.829676         0.933906        -0.242931
 H         2.114533        -0.820604         0.067308
 H        -2.646502         0.464456         1.620391
 H        -4.331333         0.912244        -0.421161
 H        -2.812114         1.998125        -0.402280
 H        -2.804948         0.602773        -1.510423
 H        -1.435997        -2.489571         0.794328
 H        -2.804707        -2.630247         1.947626
 H        -3.702070        -3.236446        -0.906848
