19
Iteration:  3013charge 0 multiplicity 1
 C         1.010920        -0.882677        -0.850815
 C        -0.071279        -0.601278         0.034332
 C        -1.189585        -0.385184         0.387083
 C        -2.474762         0.002024         0.963691
 C        -2.869312         1.410733         0.527160
 O        -3.612490        -0.945456         0.237124
 C        -3.289614        -2.263839         0.772690
 C        -2.421107        -3.142650        -0.260290
 O        -1.802257        -4.134709         0.028130
 H         1.124808        -1.980720        -0.944449
 H         0.868694        -0.644833        -1.848942
 H         2.071477        -0.586432        -0.709337
 H        -2.597429        -0.129186         2.034324
 H        -3.697719         2.004661         1.000472
 H        -1.967537         1.991792         0.416861
 H        -3.218619         1.280403        -0.568476
 H        -2.641166        -2.117379         1.641472
 H        -4.197616        -2.872149         1.110203
 H        -2.290774        -2.510741        -1.337850
