19
Iteration:  1283
 C         1.625235         0.287037        -0.005081
 C         0.198503         0.010954         0.075970
 C        -1.003340        -0.058276         0.178181
 C        -2.444502        -0.096208         0.323802
 C        -3.206263         1.093631        -0.290531
 O        -3.152341        -1.287822        -0.055564
 C        -2.541466        -2.399483         0.493814
 C        -3.307098        -3.693914         0.200950
 O        -2.805959        -4.673630         0.748930
 H         2.061743        -0.603563        -0.492813
 H         1.766090         1.188782        -0.630563
 H         2.064112         0.417288         1.019324
 H        -2.583834        -0.044532         1.412260
 H        -3.511493         0.821387        -1.301656
 H        -4.147814         1.209418         0.228699
 H        -2.696771         2.068636        -0.460818
 H        -1.484102        -2.558710         0.174941
 H        -2.653891        -2.345654         1.603997
 H        -4.189107        -3.723514        -0.443797
