19
Iteration:  4602charge 0 multiplicity 1
 C         1.411659        -0.700945        -0.001445
 C         0.233738        -0.319988         0.715324
 C        -0.898767        -0.276213         1.170435
 C        -2.404979        -0.160456         1.080187
 C        -2.984329         1.257366         0.898711
 O        -2.997331        -1.057588         0.214801
 C        -2.495261        -2.364493         0.252143
 C        -2.996214        -3.068975        -1.040305
 O        -3.478109        -4.188244        -1.212323
 H         1.337959        -1.635748        -0.624596
 H         1.694177         0.096503        -0.706133
 H         2.200227        -0.780841         0.731134
 H        -2.711351        -0.478680         2.053186
 H        -2.495882         2.103311         1.406770
 H        -2.871356         1.680053        -0.157246
 H        -4.042112         1.132392         1.055138
 H        -1.339551        -2.214330         0.162025
 H        -2.842917        -3.049255         1.033200
 H        -2.587141        -2.519046        -2.003106
