19
Iteration:  4792charge 0 multiplicity 1
 C         1.805750        -0.050366         0.485210
 C         0.447595        -0.389018         0.692984
 C        -0.791255        -0.427322         0.743664
 C        -2.264097        -0.416037         1.008972
 C        -2.718354         0.991515         1.114496
 O        -3.039417        -0.996892        -0.016788
 C        -2.843803        -2.411133         0.139864
 C        -3.747094        -3.126872        -0.837091
 O        -3.451326        -4.161773        -1.382649
 H         1.787504         0.488467        -0.543560
 H         2.543797         0.576077         1.084739
 H         2.460091        -0.943838         0.184218
 H        -2.460732        -0.999478         2.025626
 H        -2.235160         1.528453         1.907728
 H        -2.550751         1.622617         0.184535
 H        -3.790980         0.869368         1.345300
 H        -1.712746        -2.710815        -0.017926
 H        -3.134839        -2.700451         1.156454
 H        -4.594035        -2.449746        -1.250660
