19
Iteration:  1263charge 0 multiplicity 1
 C         1.682665         0.228520         0.075612
 C         0.182055        -0.079056         0.206998
 C        -1.042432        -0.043528        -0.073183
 C        -2.440553         0.034918         0.408428
 C        -3.329210         0.993940        -0.332046
 O        -3.205763        -1.141142         0.057070
 C        -2.500808        -2.402324         0.363944
 C        -3.232862        -3.713065         0.180272
 O        -2.795789        -4.691934         0.781732
 H         2.140425        -0.326523        -0.752845
 H         1.800435         1.236586        -0.082888
 H         2.273651        -0.089911         0.939870
 H        -2.320591         0.206634         1.474877
 H        -3.767030         0.386201        -1.134714
 H        -4.036143         1.478800         0.358566
 H        -2.720846         1.667487        -0.945702
 H        -1.638029        -2.545351        -0.392484
 H        -2.182737        -2.331440         1.402833
 H        -4.211278        -3.809095        -0.313852
