19
Iteration:  2373charge 0 multiplicity 1
 C         1.418456        -0.345167        -0.833678
 C         0.112306        -0.336428        -0.022131
 C        -1.075058        -0.471322         0.184993
 C        -2.510410        -0.222056         0.605918
 C        -2.888677         1.216133         0.269805
 O        -3.576005        -1.064909         0.142560
 C        -3.475205        -2.327644         0.727886
 C        -2.483546        -3.190077         0.015828
 O        -2.170138        -4.211586         0.613908
 H         1.179449        -0.247424        -1.918619
 H         2.112070         0.482557        -0.532730
 H         2.000261        -1.316244        -0.841805
 H        -2.424348        -0.432574         1.701692
 H        -3.643499         1.648433         0.929343
 H        -2.022274         1.917887         0.339961
 H        -3.282805         1.202358        -0.768323
 H        -3.265878        -2.324995         1.837400
 H        -4.537546        -2.648095         0.693683
 H        -2.198439        -2.950174        -0.993246
