19
Iteration:  3126
 C         1.243806        -1.063793        -0.704661
 C        -0.117162        -0.772180        -0.207364
 C        -1.245446        -0.361745         0.120025
 C        -2.572888        -0.136864         0.841358
 C        -2.930451         1.324107         0.569476
 O        -3.659065        -0.942575         0.543522
 C        -3.318200        -2.282452         0.742287
 C        -2.391485        -2.885237        -0.263861
 O        -1.745827        -3.881237        -0.018486
 H         1.923585        -0.295078        -0.453563
 H         1.682927        -1.973329        -0.237295
 H         1.106832        -0.951313        -1.821259
 H        -2.263218        -0.197754         1.928922
 H        -4.011971         1.460336         0.662880
 H        -2.388219         1.985433         1.340558
 H        -2.572958         1.662677        -0.392973
 H        -3.016046        -2.476761         1.838002
 H        -4.371783        -2.718559         0.767877
 H        -2.468724        -2.372349        -1.283386
