19
Iteration:   689charge 0 multiplicity 1
 C         1.525756         0.265935        -0.327196
 C         0.136540         0.117760         0.074453
 C        -1.062515         0.295269         0.302067
 C        -2.523659         0.056956         0.425100
 C        -3.026189         0.878113        -0.717922
 O        -2.881298        -1.402254        -0.017394
 C        -2.719329        -2.383904         0.949351
 C        -3.188318        -3.717838         0.343034
 O        -2.922446        -4.823597         0.776161
 H         1.602597         0.744006        -1.354036
 H         1.953660         1.006569         0.417597
 H         2.204401        -0.626634        -0.275992
 H        -3.046976         0.248887         1.407186
 H        -4.028391         1.242665        -0.689573
 H        -2.304237         1.585962        -1.151573
 H        -3.030965         0.240268        -1.694208
 H        -1.727234        -2.513180         1.317953
 H        -3.412220        -2.027331         1.750334
 H        -3.908632        -3.666451        -0.511600
