19
Iteration:  3350charge 0 multiplicity 1
 C         1.340321        -0.921445        -0.558920
 C         0.032917        -0.653347        -0.028881
 C        -1.074822        -0.436801         0.466830
 C        -2.402268         0.049578         0.973134
 C        -3.120735         1.282552         0.294879
 O        -3.474247        -0.986202         0.586919
 C        -3.303999        -2.342274         0.804678
 C        -2.675340        -2.987007        -0.382368
 O        -1.928354        -3.959411        -0.393114
 H         1.893050        -1.222355         0.361696
 H         1.312610        -1.745141        -1.284225
 H         1.546591         0.051439        -0.846157
 H        -2.514084         0.134853         2.077656
 H        -2.612095         2.018530        -0.316803
 H        -4.023485         0.990953        -0.240129
 H        -3.448629         1.993184         1.058658
 H        -2.738773        -2.749370         1.727310
 H        -4.324540        -2.780880         0.838682
 H        -3.030624        -2.653337        -1.394659
