19
Iteration:   584charge 0 multiplicity 1
 C         1.700287         0.725990        -0.025753
 C         0.283222         0.281333        -0.207932
 C        -0.904396        -0.039935        -0.090244
 C        -2.327268        -0.085098         0.178779
 C        -3.047573         0.912109        -0.809179
 O        -2.933504        -1.404558         0.031940
 C        -2.826855        -2.401830         1.109663
 C        -3.417403        -3.785534         0.645813
 O        -3.103323        -4.987111         0.736518
 H         1.837038         0.929651         1.035187
 H         2.315714        -0.145098        -0.271336
 H         1.987418         1.555258        -0.562259
 H        -2.638457         0.270701         1.177219
 H        -4.052802         0.565286        -1.036217
 H        -3.188152         1.886323        -0.385396
 H        -2.535642         0.826562        -1.780948
 H        -1.676587        -2.419341         1.355949
 H        -3.353968        -2.235753         2.041390
 H        -4.478823        -3.495714         0.440762
