19
Iteration:  3087charge 0 multiplicity 1
 C         1.135365        -0.957216        -0.794863
 C        -0.084755        -0.551794        -0.193876
 C        -1.164830        -0.543999         0.360870
 C        -2.508920        -0.113634         0.897684
 C        -2.856251         1.253049         0.438830
 O        -3.559207        -0.927539         0.553825
 C        -3.524616        -2.279486         0.752992
 C        -2.461048        -2.945143        -0.209918
 O        -1.702742        -3.871057        -0.030681
 H         2.142559        -0.971852        -0.232693
 H         1.026131        -1.970051        -1.287495
 H         1.408884        -0.374874        -1.669532
 H        -2.478393        -0.176599         2.022352
 H        -3.891385         1.373759         0.084741
 H        -2.635641         1.935370         1.255811
 H        -2.271279         1.574179        -0.423935
 H        -3.397917        -2.570114         1.803647
 H        -4.402387        -2.790693         0.361755
 H        -2.561526        -2.782032        -1.375388
