19
Iteration:  1671charge 0 multiplicity 1
 C         1.578113         0.351631        -0.146108
 C         0.099725         0.157241        -0.098523
 C        -1.033087        -0.042993         0.210774
 C        -2.434206        -0.221868         0.444814
 C        -3.217050         1.029618         0.011839
 O        -2.819930        -1.396126        -0.208606
 C        -2.254070        -2.561427         0.278610
 C        -3.367337        -3.567384         0.203670
 O        -3.232310        -4.546288         0.944040
 H         1.959064         0.488535         0.898101
 H         1.986991        -0.633902        -0.626016
 H         1.829119         1.270293        -0.725489
 H        -2.518685        -0.323017         1.561530
 H        -3.300938         1.818588         0.800356
 H        -2.639207         1.459967        -0.742705
 H        -4.236561         0.781431        -0.432508
 H        -1.370543        -3.033221        -0.317401
 H        -1.959561        -2.394252         1.334459
 H        -4.241543        -3.319920        -0.450215
