19
Iteration:  2927charge 0 multiplicity 1
 C         1.245674        -1.067978        -0.695533
 C        -0.122611        -0.504336        -0.267650
 C        -1.186703        -0.116258         0.081690
 C        -2.527241         0.068652         0.764815
 C        -3.213999         1.533129         0.622343
 O        -3.367645        -1.060853         0.398293
 C        -3.090446        -2.381114         0.881802
 C        -2.230876        -3.036085        -0.135966
 O        -2.192830        -4.260715        -0.043209
 H         1.324373        -1.099143        -1.761046
 H         1.889729        -0.362612        -0.199596
 H         1.330172        -2.150500        -0.280742
 H        -2.286629         0.012018         1.847580
 H        -4.287194         1.447458         0.892737
 H        -2.699010         2.184455         1.317957
 H        -3.154314         1.876776        -0.442404
 H        -2.681626        -2.407182         1.917056
 H        -3.934778        -3.050606         0.835040
 H        -1.860887        -2.459824        -0.917030
