19
Iteration:  2949
 C         1.187990        -1.062517        -0.688673
 C        -0.123480        -0.541618        -0.379174
 C        -1.170874        -0.091000         0.172578
 C        -2.416134         0.070338         0.890501
 C        -3.177806         1.267486         0.560016
 O        -3.463418        -0.868795         0.480064
 C        -3.245765        -2.204270         0.777915
 C        -2.191688        -3.077407        -0.151721
 O        -2.072681        -4.322596        -0.060715
 H         1.153067        -1.522647        -1.642316
 H         1.780157        -0.161689        -0.618703
 H         1.479288        -1.862129         0.098656
 H        -2.214984         0.007764         1.977159
 H        -4.215028         1.084006         0.910398
 H        -2.749822         2.033647         1.147863
 H        -3.198628         1.492722        -0.543006
 H        -2.861340        -2.310396         1.805590
 H        -4.200107        -2.714003         0.668915
 H        -1.582005        -2.514146        -0.780277
