19
Iteration:   473charge 0 multiplicity 1
 C         1.471931         0.328340         0.012797
 C         0.045220         0.462451         0.065552
 C        -1.068023         0.018486         0.258728
 C        -2.522125        -0.094141         0.181695
 C        -3.149109         0.914341        -0.729044
 O        -2.832848        -1.443910        -0.312496
 C        -2.181394        -2.603930         0.419116
 C        -3.128865        -3.800619         0.423354
 O        -3.314786        -4.504596         1.374486
 H         1.847127        -0.497300        -0.623751
 H         1.942644         1.234403        -0.363105
 H         1.858828         0.073249         0.944775
 H        -2.899917         0.144879         1.232033
 H        -3.961793         1.381744        -0.203280
 H        -2.439821         1.757517        -0.847990
 H        -3.526000         0.481556        -1.683019
 H        -1.152198        -2.771769        -0.034770
 H        -2.192085        -2.370080         1.447951
 H        -3.592984        -4.177593        -0.500611
