19
Iteration:   821charge 0 multiplicity 1
 C         1.494803        -0.291098         0.099228
 C         0.046543         0.153552        -0.190088
 C        -1.166833         0.139251        -0.195608
 C        -2.508337         0.026642         0.281479
 C        -3.496746         0.855885        -0.486960
 O        -3.072275        -1.284033         0.105059
 C        -2.390666        -2.149440         0.974100
 C        -2.517837        -3.554080         0.305968
 O        -3.062605        -4.567000         0.670260
 H         1.425337        -0.965754         0.992387
 H         1.833158        -0.910159        -0.790237
 H         2.245839         0.462118         0.275019
 H        -2.441427         0.260330         1.383920
 H        -4.600681         0.840191        -0.254892
 H        -3.265308         1.930528        -0.470665
 H        -3.353627         0.333261        -1.496429
 H        -1.236121        -1.952076         1.125427
 H        -2.893375        -2.206017         2.003298
 H        -1.952519        -3.556146        -0.707135
