19
Iteration:  1653charge 0 multiplicity 1
 C         1.644318         0.398807        -0.181158
 C         0.202669         0.219100        -0.066422
 C        -0.902510        -0.010717         0.316071
 C        -2.404955        -0.200201         0.531052
 C        -3.272507         0.874841        -0.106729
 O        -2.929835        -1.382887        -0.147598
 C        -2.201799        -2.577248         0.150444
 C        -3.336691        -3.565030         0.209221
 O        -3.366915        -4.534117         0.964291
 H         2.018652         0.190751         0.797940
 H         2.014213        -0.235723        -0.931744
 H         1.818550         1.466454        -0.401396
 H        -2.630511        -0.232094         1.615693
 H        -3.240885         1.780594         0.487808
 H        -3.172143         0.964265        -1.225732
 H        -4.305581         0.641106         0.173689
 H        -1.434335        -2.864077        -0.568956
 H        -1.715299        -2.668344         1.116063
 H        -4.210672        -3.269023        -0.426333
