19
Iteration:  2571charge 0 multiplicity 1
 C         1.341913        -0.526212        -0.710319
 C         0.154664        -0.112123         0.079828
 C        -1.013370         0.073785         0.296747
 C        -2.498020         0.061097         0.769148
 C        -3.320294         1.053610        -0.025149
 O        -3.178791        -1.200011         0.341548
 C        -2.600760        -2.295050         1.087244
 C        -2.513675        -3.326977         0.030459
 O        -2.982252        -4.460989        -0.047762
 H         2.361000        -0.010938        -0.745780
 H         1.803787        -1.371915        -0.125116
 H         1.035615        -0.832912        -1.702803
 H        -2.652921         0.058848         1.866233
 H        -4.355500         1.261415         0.380826
 H        -2.817245         2.006074        -0.301557
 H        -3.593703         0.588886        -0.995481
 H        -1.458088        -2.078474         1.301482
 H        -3.259959        -2.459750         1.997546
 H        -1.953265        -2.931642        -0.787095
