19
Iteration:  1649charge 0 multiplicity 1
 C         1.665722         0.410370        -0.192201
 C         0.244352         0.234360        -0.047575
 C        -0.918387        -0.002928         0.332739
 C        -2.401912        -0.181044         0.527972
 C        -3.292641         0.835869        -0.109295
 O        -2.933943        -1.378575        -0.128208
 C        -2.203527        -2.563226         0.115691
 C        -3.324895        -3.577734         0.195341
 O        -3.402991        -4.558801         0.981379
 H         2.083078         0.170682         0.805816
 H         2.043409        -0.236192        -1.079047
 H         1.756288         1.500601        -0.311619
 H        -2.577510        -0.156085         1.632849
 H        -3.115977         1.870085         0.311836
 H        -3.218340         0.846527        -1.148297
 H        -4.354526         0.636299         0.202991
 H        -1.481281        -2.954487        -0.678500
 H        -1.681038        -2.517220         1.090943
 H        -4.153120        -3.254943        -0.413793
