19
Iteration:  1612charge 0 multiplicity 1
 C         1.637689         0.543491        -0.235843
 C         0.299899         0.255294         0.278379
 C        -0.913263         0.152252         0.168963
 C        -2.303415        -0.098340         0.406751
 C        -3.335536         0.928258        -0.124491
 O        -2.827085        -1.474759         0.064208
 C        -2.251429        -2.793233         0.032186
 C        -3.401531        -3.732643         0.092964
 O        -3.521180        -4.546822         1.042479
 H         2.476932        -0.209041        -0.057672
 H         1.708608         0.764277        -1.288047
 H         2.060257         1.482843         0.207129
 H        -2.396769        -0.033215         1.498869
 H        -2.643448         1.670033        -0.594573
 H        -3.957369         0.401132        -0.965951
 H        -3.961687         1.435196         0.587000
 H        -1.587291        -2.932999        -0.867496
 H        -1.545000        -2.856190         0.930732
 H        -4.240865        -3.664779        -0.632901
