19
Iteration:  3893charge 0 multiplicity 1
 C         0.961249        -1.429208        -0.550562
 C        -0.090011        -0.666100         0.084014
 C        -1.100051        -0.178359         0.581360
 C        -2.462458         0.125299         1.092823
 C        -3.095466         1.496268         1.050077
 O        -3.474317        -0.815223         0.377778
 C        -3.108463        -2.304149         0.381574
 C        -2.255905        -2.945764        -0.693670
 O        -1.978352        -4.139074        -0.567683
 H         1.607223        -1.583073         0.328111
 H         0.503969        -2.380498        -0.817141
 H         1.454865        -0.811500        -1.486467
 H        -2.553260        -0.273858         2.142301
 H        -2.741667         2.055289         1.929231
 H        -3.090486         2.040386         0.119220
 H        -4.179051         1.115610         1.063706
 H        -2.595289        -2.356157         1.393158
 H        -4.152482        -2.595082         0.506416
 H        -2.028483        -2.307221        -1.589327
