19
Iteration:   230
 C         1.607280         0.484843        -0.110157
 C         0.192435         0.260865        -0.084959
 C        -0.999914         0.000253         0.089144
 C        -2.438564         0.007381         0.042148
 C        -2.987638         0.988874        -1.094077
 O        -2.982179        -1.341781        -0.035672
 C        -2.456011        -2.573809         0.679703
 C        -3.487100        -3.733057         0.922465
 O        -3.129236        -4.836143         1.265378
 H         2.129095        -0.468480         0.250776
 H         2.043605         0.644779        -1.128448
 H         1.953675         1.193885         0.656747
 H        -2.874977         0.429306         0.998221
 H        -3.341721         0.341911        -1.979697
 H        -3.818384         1.640443        -0.811643
 H        -2.122238         1.614879        -1.360878
 H        -1.697554        -3.139829         0.114849
 H        -1.928850        -2.278319         1.578898
 H        -4.591104        -3.587748         0.626595
