19
Iteration:  3994charge 0 multiplicity 1
 C         1.043575        -1.346160        -0.373622
 C        -0.200678        -0.896861         0.162150
 C        -1.308789        -0.470247         0.385894
 C        -2.467334        -0.134666         1.095675
 C        -2.815863         1.344943         0.779422
 O        -3.605346        -0.829764         0.607234
 C        -3.271719        -2.304234         0.489988
 C        -2.388748        -2.687833        -0.736269
 O        -1.742359        -3.690927        -0.672309
 H         1.249523        -0.637489        -1.171818
 H         1.756000        -1.156667         0.417769
 H         1.010569        -2.467059        -0.589647
 H        -2.280932        -0.425142         2.151785
 H        -2.004994         1.988282         1.111115
 H        -2.957151         1.520808        -0.282657
 H        -3.668024         1.561844         1.408955
 H        -2.707141        -2.434154         1.389262
 H        -4.235400        -2.824290         0.510634
 H        -2.523532        -2.038248        -1.641062
