19
Iteration:  2364
 C         1.365117        -0.340063        -0.815911
 C         0.142354        -0.520862        -0.086547
 C        -1.081464        -0.429344         0.203613
 C        -2.449258        -0.201477         0.594124
 C        -2.948576         1.241777         0.265824
 O        -3.512301        -1.053731         0.171461
 C        -3.547025        -2.344901         0.681501
 C        -2.510889        -3.193245         0.044391
 O        -2.116514        -4.164576         0.623743
 H         1.011523         0.062502        -1.851102
 H         2.076392         0.380127        -0.327817
 H         1.880049        -1.311741        -0.861194
 H        -2.454807        -0.151968         1.728852
 H        -3.824755         1.443936         0.905264
 H        -2.046491         1.972149         0.455049
 H        -3.252707         1.402868        -0.763566
 H        -3.303844        -2.258121         1.731574
 H        -4.438591        -2.968896         0.537047
 H        -2.071569        -2.833463        -0.987283
