19
Iteration:  4290charge 0 multiplicity 1
 C         1.440142        -0.804249        -0.111776
 C         0.130853        -0.659893         0.573197
 C        -1.038772        -0.283472         0.751520
 C        -2.460703        -0.150578         1.081014
 C        -2.837183         1.402186         0.930165
 O        -3.334739        -0.956406         0.284966
 C        -3.158201        -2.327574         0.338434
 C        -2.565143        -2.983662        -0.914998
 O        -2.807018        -4.160927        -1.026327
 H         1.190569        -0.508370        -1.138672
 H         2.230387        -0.217141         0.339708
 H         1.772159        -1.890007        -0.063677
 H        -2.411982        -0.378674         2.114460
 H        -1.806620         1.863023         1.199791
 H        -3.165736         1.643649        -0.088953
 H        -3.673209         1.755348         1.569879
 H        -2.599580        -2.805129         1.095414
 H        -4.162010        -2.720014         0.619657
 H        -2.100125        -2.380161        -1.669299
