19
Iteration:  1477
 C         1.812064         0.701504        -0.277718
 C         0.367498         0.458114         0.078936
 C        -0.794806         0.028129         0.147776
 C        -2.294997        -0.267198         0.452476
 C        -3.263752         0.883067        -0.168904
 O        -2.846472        -1.435287        -0.129338
 C        -2.683546        -2.602556         0.723736
 C        -3.287176        -3.779085         0.033951
 O        -3.523554        -4.741355         0.799474
 H         1.872282         1.504496        -0.957235
 H         2.325192         0.893424         0.678716
 H         2.177645        -0.231220        -0.695713
 H        -2.515476        -0.223445         1.518485
 H        -4.212318         0.477760         0.221488
 H        -3.090782         1.903981         0.269347
 H        -3.300351         1.103338        -1.310365
 H        -1.586883        -2.812217         0.893529
 H        -3.226994        -2.465510         1.700129
 H        -3.647672        -3.620750        -0.996733
