19
Iteration:  3548charge 0 multiplicity 1
 C         1.046857        -0.927595        -0.615373
 C        -0.147801        -0.425914         0.034697
 C        -1.174937        -0.357687         0.702147
 C        -2.524463         0.010896         1.046989
 C        -2.980168         1.401624         0.679202
 O        -3.221009        -0.903730         0.208322
 C        -3.024592        -2.270641         0.587648
 C        -2.226397        -3.097784        -0.391822
 O        -2.387188        -4.329383        -0.381229
 H         0.742103        -2.012690        -0.889635
 H         1.032511        -0.360063        -1.592410
 H         1.996845        -0.802326        -0.064665
 H        -2.826304        -0.040701         2.122944
 H        -2.160753         2.140233         0.640520
 H        -3.315606         1.443006        -0.385452
 H        -3.856518         1.735393         1.250413
 H        -2.630898        -2.496406         1.589641
 H        -4.003652        -2.711835         0.511134
 H        -1.708868        -2.364208        -1.029325
