19
Iteration:  4475
 C         1.754004        -0.556167         0.219863
 C         0.310349        -0.376296         0.419438
 C        -0.896488        -0.216691         0.530505
 C        -2.347720        -0.197829         1.013525
 C        -2.832332         1.221759         1.084537
 O        -3.194731        -0.985712         0.248053
 C        -3.232445        -2.415992         0.386510
 C        -3.132376        -3.091108        -0.987795
 O        -3.062850        -4.295895        -1.101032
 H         2.354441         0.244254         0.699880
 H         2.259640        -1.425895         0.629168
 H         1.995732        -0.495927        -0.872284
 H        -2.137973        -0.570234         1.994137
 H        -2.352544         2.029591         1.625640
 H        -3.076381         1.511480         0.105046
 H        -3.852096         1.375544         1.431604
 H        -2.282131        -2.816196         0.953460
 H        -4.274604        -2.576242         0.804851
 H        -2.856290        -2.390611        -1.848167
