19
Iteration:   520
 C         1.644741         0.595111        -0.004849
 C         0.274661         0.193476         0.112227
 C        -0.917932         0.009798         0.131257
 C        -2.397939        -0.084187         0.140851
 C        -3.301511         0.724931        -0.797220
 O        -2.944435        -1.371090        -0.129269
 C        -2.353881        -2.396434         0.674720
 C        -3.205753        -3.691255         0.467912
 O        -3.350705        -4.749945         1.093860
 H         2.309642        -0.178037         0.321926
 H         1.857296         0.812136        -1.049318
 H         1.899894         1.434061         0.671124
 H        -2.599764         0.134306         1.224816
 H        -4.194341         1.018806        -0.223491
 H        -2.977153         1.588175        -1.348432
 H        -3.710225        -0.041309        -1.444555
 H        -1.369247        -2.592474         0.249269
 H        -2.303542        -2.124852         1.729427
 H        -3.961284        -3.563127        -0.321110
