19
Iteration:   151charge 0 multiplicity 1
 C         1.510195         0.530772        -0.262656
 C         0.232453        -0.100419         0.096964
 C        -0.973964         0.018490        -0.000188
 C        -2.397463        -0.070623         0.079501
 C        -3.033553         0.612553        -1.150060
 O        -2.884800        -1.493060         0.033021
 C        -2.450347        -2.264115         1.128715
 C        -3.358474        -3.450244         0.859586
 O        -3.236832        -4.638095         0.920797
 H         1.707308         0.547008        -1.331377
 H         1.472772         1.583969         0.142127
 H         2.513218         0.126236         0.176505
 H        -2.860983         0.372530         1.048391
 H        -2.622306         1.645798        -1.349656
 H        -2.767657         0.003365        -2.072348
 H        -4.190364         0.612822        -1.079264
 H        -1.358993        -2.387815         1.215438
 H        -2.759867        -1.796050         2.103193
 H        -4.391459        -3.165506         0.806358
