19
Iteration:  3117charge 0 multiplicity 1
 C         1.241598        -1.028818        -0.717608
 C        -0.059734        -0.676612        -0.195669
 C        -1.229856        -0.490088         0.130229
 C        -2.496871        -0.083401         0.855062
 C        -2.918055         1.336076         0.555999
 O        -3.678250        -0.973651         0.547886
 C        -3.452074        -2.329482         0.765913
 C        -2.383948        -2.852031        -0.303706
 O        -1.755469        -3.862579         0.015416
 H         2.035445        -0.359110        -0.397366
 H         1.426536        -2.144392        -0.588154
 H         1.125047        -1.038573        -1.804094
 H        -2.391921        -0.154508         1.956389
 H        -4.001595         1.382631         0.515728
 H        -2.584784         2.054261         1.360502
 H        -2.517727         1.601312        -0.373475
 H        -2.783105        -2.410820         1.645274
 H        -4.288840        -2.993752         0.775692
 H        -2.332911        -2.257831        -1.264242
