19
Iteration:  4409charge 0 multiplicity 1
 C         1.665851        -0.391521         0.182548
 C         0.221768        -0.587654         0.477835
 C        -0.996552        -0.415460         0.514405
 C        -2.304083        -0.228227         0.999131
 C        -2.609039         1.330645         1.054105
 O        -3.287162        -0.954791         0.264044
 C        -3.337111        -2.390882         0.327977
 C        -3.144211        -3.078475        -1.016744
 O        -2.875373        -4.261511        -1.002078
 H         2.312842        -0.917190         0.927953
 H         1.955536        -0.694142        -0.818506
 H         1.756154         0.730965         0.174194
 H        -2.406782        -0.644620         2.057590
 H        -1.692186         1.769211         1.503229
 H        -2.644132         1.602269         0.014455
 H        -3.557598         1.508925         1.527365
 H        -2.483394        -2.739657         1.064944
 H        -4.346712        -2.791779         0.654619
 H        -3.118820        -2.434674        -1.889845
