19
Iteration:  2965
 C         1.175515        -1.052698        -0.761511
 C        -0.121299        -0.498719        -0.318578
 C        -1.191243        -0.188208         0.282324
 C        -2.448436         0.033793         0.983561
 C        -3.138739         1.374927         0.533137
 O        -3.448053        -0.858624         0.474255
 C        -3.304450        -2.294761         0.678494
 C        -2.269704        -3.097254        -0.161383
 O        -1.981656        -4.288264        -0.029824
 H         1.183048        -1.891672        -1.547152
 H         1.939695        -0.335956        -1.222690
 H         1.725681        -1.401832         0.089917
 H        -2.328181        -0.093248         2.094111
 H        -4.143827         1.442784         0.933177
 H        -2.572128         2.337902         0.632513
 H        -3.275743         1.227600        -0.518990
 H        -2.836955        -2.446558         1.691895
 H        -4.376215        -2.632352         0.704758
 H        -1.699842        -2.379796        -0.882034
