19
Iteration:  4543charge 0 multiplicity 1
 C         1.533743        -0.618536         0.108004
 C         0.167108        -0.447563         0.417436
 C        -0.918366        -0.279729         0.948681
 C        -2.349390        -0.166028         1.104528
 C        -2.920526         1.245382         1.004042
 O        -3.096612        -0.969083         0.113874
 C        -2.765586        -2.374862         0.343758
 C        -2.914867        -3.076420        -0.970483
 O        -3.325787        -4.204773        -1.132487
 H         1.691559        -0.254994        -0.893334
 H         2.294987        -0.114240         0.765241
 H         1.915115        -1.652397        -0.036213
 H        -2.696225        -0.547588         2.029639
 H        -2.795812         1.889982         1.810578
 H        -2.778185         1.577653        -0.015588
 H        -4.033558         1.159352         1.022413
 H        -1.725089        -2.513513         0.884935
 H        -3.496458        -2.892051         1.029628
 H        -2.474257        -2.458801        -1.893125
