19
Iteration:  4392charge 0 multiplicity 1
 C         1.657762        -0.369428         0.133804
 C         0.298764        -0.570296         0.488928
 C        -0.926279        -0.586964         0.585368
 C        -2.349962        -0.171368         1.021231
 C        -2.634856         1.322602         0.977008
 O        -3.409334        -0.869000         0.289078
 C        -3.324700        -2.305515         0.387813
 C        -3.038307        -3.120834        -0.972834
 O        -2.852501        -4.329363        -1.099362
 H         2.265176        -1.190126         0.515252
 H         1.640306        -0.402210        -0.997125
 H         2.082295         0.543498         0.518709
 H        -2.284701        -0.442185         2.059961
 H        -2.070147         1.785100         1.801287
 H        -2.289093         1.931100         0.090792
 H        -3.724124         1.298617         1.350360
 H        -2.809323        -2.698891         1.208416
 H        -4.314882        -2.730498         0.745436
 H        -3.358355        -2.510475        -1.908105
