19
Iteration:  1563charge 0 multiplicity 1
 C         1.564656         0.710463        -0.118964
 C         0.191751         0.306440        -0.145596
 C        -0.844256        -0.147047         0.249676
 C        -2.322260        -0.298436         0.548796
 C        -3.092341         0.827009        -0.096581
 O        -2.959367        -1.381972        -0.167056
 C        -2.217345        -2.559214         0.253481
 C        -3.295543        -3.742013         0.181862
 O        -3.622257        -4.560323         0.975393
 H         2.133283         0.107530        -0.780015
 H         1.782041         1.750207        -0.469459
 H         2.050380         0.600484         0.831840
 H        -2.585518        -0.319950         1.624864
 H        -3.059677         0.841972        -1.197359
 H        -4.058404         0.635938         0.320687
 H        -2.743114         1.900504         0.284448
 H        -1.357433        -2.754163        -0.396754
 H        -1.761258        -2.294391         1.183271
 H        -3.788570        -3.788136        -0.872490
