19
Iteration:  2935
 C         1.177665        -1.028879        -0.664012
 C        -0.108396        -0.565136        -0.332662
 C        -1.177383        -0.090548         0.129875
 C        -2.444942         0.044696         0.767918
 C        -3.208358         1.452534         0.616311
 O        -3.420471        -0.983782         0.439973
 C        -3.093853        -2.353830         0.814709
 C        -2.220221        -3.049283        -0.081767
 O        -2.163548        -4.250088        -0.057142
 H         1.325388        -1.264579        -1.757661
 H         2.043947        -0.430586        -0.426547
 H         1.325621        -1.940168        -0.131034
 H        -2.242392        -0.154360         1.829377
 H        -4.273006         1.266796         0.877660
 H        -2.897112         2.416169         1.183030
 H        -3.120293         1.727152        -0.431531
 H        -2.912667        -2.476956         1.880472
 H        -4.059760        -2.975385         0.749667
 H        -1.780502        -2.539079        -0.990874
