19
Iteration:  2052
 C         1.128109        -1.091133        -0.575718
 C        -0.112683        -0.554748         0.012053
 C        -1.265043        -0.306205         0.430336
 C        -2.696586         0.110820         0.708937
 C        -3.225889         1.199620        -0.320237
 O        -3.617088        -1.045012         0.473054
 C        -2.960763        -2.186637         1.029249
 C        -2.260994        -2.938784        -0.055281
 O        -1.719396        -4.048925         0.090017
 H         1.600909        -0.431662        -1.359073
 H         1.995141        -1.176206         0.144386
 H         1.007375        -2.144435        -0.931169
 H        -2.885821         0.342620         1.773486
 H        -3.945679         1.839447         0.196814
 H        -2.339916         1.785927        -0.786513
 H        -3.755035         0.693847        -1.108193
 H        -2.403774        -2.019638         1.988567
 H        -3.772671        -2.891201         1.249811
 H        -2.226872        -2.486269        -0.995947
