19
Iteration:  2207charge 0 multiplicity 1
 C         0.874769        -1.401691        -0.677873
 C        -0.217524        -0.555097        -0.285128
 C        -1.274554        -0.263998         0.197760
 C        -2.591173        -0.026080         0.730486
 C        -3.221363         1.353785         0.409850
 O        -3.505353        -0.916581         0.103407
 C        -3.283948        -2.282108         0.467989
 C        -2.028276        -3.047101        -0.119680
 O        -1.445015        -3.700455         0.767778
 H         0.859503        -2.202808         0.060652
 H         0.671947        -1.970255        -1.644824
 H         1.913057        -0.888307        -0.596532
 H        -2.601754        -0.191691         1.825651
 H        -4.018528         1.547858         1.193580
 H        -2.577549         2.228798         0.391903
 H        -3.806392         1.150736        -0.541698
 H        -3.235330        -2.320421         1.551808
 H        -4.093356        -2.934738         0.204046
 H        -1.817477        -3.052298        -1.134466
