19
Iteration:  4354
 C         1.565847        -0.488510         0.041883
 C         0.169836        -0.479922         0.375364
 C        -0.971767        -0.459056         0.770699
 C        -2.321393        -0.274257         1.110652
 C        -2.639314         1.158165         0.834462
 O        -3.249047        -1.004312         0.234482
 C        -3.418024        -2.422518         0.399089
 C        -2.961153        -2.905993        -0.897597
 O        -2.829977        -4.106412        -0.993963
 H         1.866744        -1.481896        -0.412866
 H         1.894825         0.248579        -0.686303
 H         2.255484        -0.393665         0.990142
 H        -2.789171        -0.442151         2.172902
 H        -2.360811         1.649089         1.823447
 H        -2.089906         1.552034        -0.014329
 H        -3.652826         1.458309         0.641577
 H        -2.637846        -2.644740         1.221230
 H        -4.410928        -2.799991         0.445417
 H        -2.761255        -2.115202        -1.760344
