19
Iteration:  1851charge 0 multiplicity 1
 C         1.584622        -0.219434        -0.449026
 C         0.124312         0.101029         0.038634
 C        -0.976386        -0.152331         0.578567
 C        -2.496528         0.033976         0.584317
 C        -3.225977         0.845988        -0.531138
 O        -3.365944        -1.121584         0.531699
 C        -2.629467        -2.282471         0.854462
 C        -2.984406        -3.434679        -0.031454
 O        -2.663812        -4.545435         0.241649
 H         1.483073        -1.136271        -1.152469
 H         1.945412         0.540298        -1.123251
 H         2.150184        -0.453746         0.473402
 H        -2.720437         0.582034         1.516689
 H        -4.143436         1.278694        -0.100051
 H        -2.785781         1.729583        -1.006588
 H        -3.347772         0.044385        -1.221943
 H        -1.515505        -2.045246         0.665373
 H        -2.683099        -2.623843         1.880121
 H        -3.518348        -3.161134        -0.892725
