19
Iteration:  1864charge 0 multiplicity 1
 C         1.451578        -0.250956        -0.400845
 C         0.092364        -0.000915         0.035702
 C        -1.016855        -0.119531         0.404782
 C        -2.566540         0.093434         0.608519
 C        -3.142400         0.878439        -0.549453
 O        -3.330703        -1.129768         0.635876
 C        -2.629575        -2.278294         0.902595
 C        -2.946693        -3.414677        -0.035658
 O        -2.606764        -4.554085         0.182092
 H         1.560490        -1.354315        -0.692489
 H         1.787839         0.423079        -1.156770
 H         2.188599        -0.109177         0.376355
 H        -2.689634         0.544462         1.623454
 H        -4.122231         1.382640        -0.245616
 H        -2.360497         1.521907        -0.879492
 H        -3.508918         0.274688        -1.461351
 H        -1.487158        -2.173749         0.697506
 H        -2.717390        -2.575930         1.957685
 H        -3.413229        -3.095459        -0.950947
