19
Iteration:  1641
 C         1.704982         0.443254        -0.208276
 C         0.237189         0.229309         0.038284
 C        -0.919017         0.038402         0.322618
 C        -2.366977        -0.151470         0.512759
 C        -3.347314         0.826114        -0.093778
 O        -2.919735        -1.360812        -0.081255
 C        -2.205699        -2.572156         0.065665
 C        -3.312479        -3.661476         0.234331
 O        -3.476852        -4.569802         0.976721
 H         2.351120         0.065995         0.550285
 H         2.138464         0.052484        -1.121840
 H         1.915614         1.520201        -0.287278
 H        -2.513381        -0.212162         1.617246
 H        -2.882035         1.790605        -0.178888
 H        -3.304245         0.565316        -1.174086
 H        -4.388351         0.598935         0.214348
 H        -1.651436        -2.801205        -0.856522
 H        -1.548359        -2.364856         0.883902
 H        -4.131352        -3.373425        -0.488396
