19
Iteration:  3860
 C         1.025958        -1.217845        -0.559038
 C        -0.192124        -0.692523         0.063625
 C        -1.208832        -0.212181         0.503816
 C        -2.523355        -0.018876         1.055244
 C        -2.912938         1.455869         1.041939
 O        -3.403915        -0.884070         0.251461
 C        -3.152621        -2.290759         0.533092
 C        -2.327516        -2.920752        -0.553837
 O        -2.017160        -4.082582        -0.563823
 H         1.474866        -2.014549         0.067545
 H         0.872171        -1.837863        -1.447808
 H         1.950814        -0.492565        -0.587202
 H        -2.717206        -0.446417         2.013970
 H        -2.868495         1.991609         2.020786
 H        -2.258050         1.934258         0.315322
 H        -3.979899         1.562198         0.741468
 H        -2.825281        -2.549420         1.570688
 H        -4.106745        -2.833574         0.637570
 H        -2.146239        -2.272599        -1.458359
