19
Iteration:  3261charge 0 multiplicity 1
 C         0.958543        -1.235999        -0.592989
 C        -0.254084        -0.771892        -0.066252
 C        -1.111541        -0.062464         0.498508
 C        -2.531077         0.112436         0.993824
 C        -3.149200         1.421920         0.506663
 O        -3.421696        -0.903295         0.372061
 C        -3.067080        -2.286931         0.688581
 C        -2.227118        -2.995920        -0.330077
 O        -1.917436        -4.162610        -0.287860
 H         0.767240        -1.956191        -1.444113
 H         1.570221        -0.466263        -1.158280
 H         1.688497        -1.624151         0.036917
 H        -2.592233        -0.033796         2.128705
 H        -2.478447         2.200130         0.183403
 H        -3.689297         1.033202        -0.290991
 H        -3.993033         1.726146         1.196889
 H        -2.385699        -2.198807         1.648294
 H        -4.014175        -2.784484         0.978830
 H        -1.703868        -2.211283        -1.093878
