19
Iteration:  2954charge 0 multiplicity 1
 C         1.206735        -1.098129        -0.707974
 C        -0.160613        -0.499510        -0.351578
 C        -1.164780        -0.120249         0.185296
 C        -2.437244         0.054286         0.928375
 C        -3.175878         1.246600         0.536501
 O        -3.436431        -0.823589         0.492685
 C        -3.298095        -2.200789         0.730913
 C        -2.227906        -3.111327        -0.153024
 O        -2.032999        -4.304748        -0.060773
 H         1.235652        -1.648386        -1.715835
 H         1.738978        -0.076563        -0.778871
 H         1.560294        -1.704230         0.096922
 H        -2.282911         0.073218         2.041881
 H        -4.148810         1.170817         0.997835
 H        -2.681809         2.139318         1.070099
 H        -3.138229         1.387881        -0.510608
 H        -2.936418        -2.259439         1.798386
 H        -4.182506        -2.904188         0.826495
 H        -1.401684        -2.572158        -0.847337
