19
Iteration:  3098
 C         1.185807        -1.003197        -0.818536
 C        -0.033867        -0.491177        -0.173757
 C        -1.180333        -0.651083         0.301825
 C        -2.458959        -0.155612         0.857445
 C        -2.893685         1.341154         0.467766
 O        -3.663711        -0.932644         0.549655
 C        -3.434057        -2.329827         0.738592
 C        -2.457861        -2.906945        -0.248749
 O        -1.714808        -3.866084         0.009092
 H         2.035331        -0.784619        -0.070984
 H         0.994399        -2.128427        -0.873150
 H         1.274816        -0.531668        -1.773339
 H        -2.311789        -0.059284         1.953103
 H        -3.980504         1.220317         0.333653
 H        -2.785574         2.019104         1.298410
 H        -2.351498         1.730765        -0.407059
 H        -3.248353        -2.590813         1.778356
 H        -4.427599        -2.660327         0.433189
 H        -2.698933        -2.269206        -1.183122
