19
Iteration:  3661charge 0 multiplicity 1
 C         1.389496        -0.875750        -0.412803
 C         0.021492        -0.552304        -0.062034
 C        -1.121474        -0.337806         0.283804
 C        -2.439605        -0.092309         0.957818
 C        -2.932626         1.376675         0.809469
 O        -3.477904        -0.934446         0.415450
 C        -3.405483        -2.318929         0.606783
 C        -2.587104        -3.029831        -0.531183
 O        -2.132158        -4.157781        -0.351215
 H         2.094995        -0.021021        -0.229045
 H         1.748359        -1.842181        -0.089257
 H         1.478829        -0.797023        -1.554269
 H        -2.230512        -0.527781         1.964112
 H        -2.468975         1.948416         1.608545
 H        -2.605582         1.781071        -0.153533
 H        -4.019517         1.350638         0.855427
 H        -3.278177        -2.574850         1.661143
 H        -4.474348        -2.555100         0.516314
 H        -2.424636        -2.523945        -1.523785
