19
Iteration:   314
 C         1.647285         0.204219         0.188138
 C         0.210761         0.161648        -0.030152
 C        -1.011660         0.250471        -0.063198
 C        -2.531404        -0.152880         0.012406
 C        -3.441054         0.974545        -0.685286
 O        -2.797270        -1.489488        -0.480263
 C        -2.302166        -2.491422         0.399391
 C        -3.297459        -3.633212         0.734439
 O        -3.125588        -4.553605         1.531584
 H         1.938632         0.637983         1.090221
 H         2.094061        -0.780362         0.050602
 H         2.014555         0.752340        -0.734561
 H        -2.763019        -0.035487         1.144275
 H        -3.406367         1.922602        -0.112007
 H        -3.161889         1.176080        -1.723812
 H        -4.509079         0.612061        -0.549042
 H        -1.505748        -3.126114        -0.082895
 H        -1.926284        -1.960788         1.322992
 H        -4.155233        -3.494175         0.042899
