19
Iteration:  2366
 C         1.385368        -0.341041        -0.822607
 C         0.135953        -0.477506        -0.067675
 C        -1.081832        -0.437423         0.202849
 C        -2.463812        -0.213377         0.590089
 C        -2.933677         1.236221         0.265762
 O        -3.525730        -1.060953         0.169625
 C        -3.529427        -2.341231         0.689844
 C        -2.500697        -3.203534         0.044912
 O        -2.136265        -4.161851         0.617032
 H         1.020839        -0.019243        -1.867849
 H         2.080532         0.379906        -0.376937
 H         1.894332        -1.275600        -0.858670
 H        -2.431289        -0.209665         1.713185
 H        -3.797617         1.504860         0.910806
 H        -2.038608         1.958331         0.426169
 H        -3.267602         1.362790        -0.742707
 H        -3.308611        -2.250998         1.734880
 H        -4.460725        -2.917167         0.596254
 H        -2.085321        -2.846258        -1.025416
