19
Iteration:  4766
 C         1.788040        -0.160272         0.537021
 C         0.405659        -0.398937         0.564633
 C        -0.846588        -0.399773         0.585208
 C        -2.274261        -0.351736         1.043177
 C        -2.666900         1.187635         1.180837
 O        -3.070682        -1.023370         0.074062
 C        -2.847781        -2.444269         0.104201
 C        -3.793985        -3.192346        -0.915088
 O        -3.311017        -4.200658        -1.363737
 H         2.012520         0.865089         0.190236
 H         2.392691        -0.150239         1.517861
 H         2.321694        -0.785340        -0.188625
 H        -2.439115        -0.844617         2.046187
 H        -1.847719         1.723363         1.748477
 H        -2.903167         1.716301         0.309045
 H        -3.555409         1.141711         1.825946
 H        -1.820627        -2.691632         0.056738
 H        -3.317046        -2.744100         1.081265
 H        -4.778295        -2.740938        -1.296482
