19
Iteration:  1511charge 0 multiplicity 1
 C         1.562509         0.731519        -0.196350
 C         0.322421         0.167501         0.121876
 C        -0.908073         0.022760         0.056672
 C        -2.297145        -0.224099         0.325593
 C        -3.120436         1.034051        -0.023282
 O        -2.790023        -1.418004        -0.284284
 C        -2.455792        -2.555302         0.608568
 C        -3.259490        -3.817504         0.196575
 O        -3.627760        -4.774890         0.860445
 H         1.650213         1.110565        -1.216807
 H         1.755049         1.616891         0.407243
 H         2.484249         0.109439        -0.077911
 H        -2.368020        -0.388386         1.422412
 H        -4.080380         0.670092        -0.489988
 H        -3.486144         1.339848         0.966444
 H        -2.756366         1.838452        -0.741388
 H        -1.348826        -2.774924         0.502114
 H        -2.534351        -2.209398         1.680116
 H        -3.628183        -3.773450        -0.823328
