19
Iteration:  4553
 C         1.503905        -0.623546         0.076511
 C         0.110371        -0.521930         0.487782
 C        -0.948304        -0.175735         0.991361
 C        -2.363114        -0.171766         1.128661
 C        -2.909098         1.162847         0.922655
 O        -3.060890        -0.983136         0.123189
 C        -2.736068        -2.378469         0.302094
 C        -2.861189        -3.065724        -0.989991
 O        -3.362956        -4.169275        -1.103183
 H         1.464839        -0.311091        -0.956213
 H         2.113292         0.182978         0.537126
 H         1.884727        -1.671533         0.212880
 H        -2.519978        -0.486763         2.152810
 H        -2.368915         1.738017         1.674751
 H        -2.661995         1.793532         0.122105
 H        -3.985260         1.049542         1.157763
 H        -1.617804        -2.392991         0.590320
 H        -3.447781        -2.928109         0.972363
 H        -2.511722        -2.446500        -1.933109
