19
Iteration:   475charge 0 multiplicity 1
 C         1.473760         0.337707         0.005742
 C         0.042897         0.444789         0.075336
 C        -1.073607         0.036937         0.244207
 C        -2.501866        -0.089880         0.170747
 C        -3.156501         0.925829        -0.733904
 O        -2.835725        -1.437751        -0.283969
 C        -2.177397        -2.631816         0.416009
 C        -3.142342        -3.810771         0.421691
 O        -3.310199        -4.505307         1.366187
 H         1.840637        -0.498224        -0.598356
 H         1.936182         1.243440        -0.408258
 H         1.917478         0.162574         1.026324
 H        -2.892223         0.174203         1.195285
 H        -3.933930         1.343025        -0.172866
 H        -2.424836         1.727143        -0.896055
 H        -3.527401         0.484801        -1.690602
 H        -1.152992        -2.816754         0.071093
 H        -2.254612        -2.367633         1.442521
 H        -3.619569        -4.137867        -0.536228
