19
Iteration:  1618
 C         1.651921         0.524921        -0.227862
 C         0.349204         0.243287         0.259582
 C        -0.898524         0.160978         0.165759
 C        -2.340030        -0.113064         0.486678
 C        -3.348584         0.902950        -0.166135
 O        -2.841573        -1.435963         0.039430
 C        -2.222199        -2.752485         0.022928
 C        -3.388627        -3.750043         0.153271
 O        -3.524957        -4.551703         1.017005
 H         2.407279        -0.166738         0.053725
 H         1.697388         0.583915        -1.349768
 H         1.941534         1.517005         0.124328
 H        -2.446801         0.035061         1.587786
 H        -2.715205         1.675076        -0.586994
 H        -3.963046         0.569784        -0.963672
 H        -4.093304         1.147336         0.652172
 H        -1.761761        -3.011764        -0.947322
 H        -1.547953        -2.759511         0.842801
 H        -4.157866        -3.612066        -0.695700
