19
Iteration:   166charge 0 multiplicity 1
 C         1.518078         0.539762        -0.269967
 C         0.228935         0.040021         0.088113
 C        -0.956295        -0.156457         0.182502
 C        -2.415168        -0.078376         0.043062
 C        -3.047009         0.594055        -1.175610
 O        -2.870124        -1.380166         0.030180
 C        -2.443084        -2.324976         1.001421
 C        -3.460865        -3.454796         0.878236
 O        -3.165754        -4.639607         0.967950
 H         1.697092         0.156356        -1.331551
 H         1.486568         1.637823        -0.287384
 H         2.251777         0.218570         0.421778
 H        -2.771310         0.473387         1.017354
 H        -2.398846         1.398705        -1.564040
 H        -3.299490        -0.147178        -1.876900
 H        -3.909922         1.094945        -0.848848
 H        -1.415958        -2.720642         0.827973
 H        -2.578447        -1.920509         2.080350
 H        -4.438707        -3.020775         0.566144
