19
Iteration:  1459
 C         1.694173         0.626942        -0.224024
 C         0.256390         0.417111        -0.117352
 C        -0.847919         0.143986         0.233729
 C        -2.271098        -0.145562         0.478965
 C        -3.175741         0.803225        -0.203345
 O        -2.715239        -1.433637        -0.017618
 C        -2.741792        -2.584075         0.762997
 C        -3.318540        -3.753179         0.028603
 O        -3.483253        -4.789757         0.713459
 H         1.941900         1.695007        -0.596344
 H         2.171233         0.447273         0.748106
 H         2.121739        -0.110089        -0.992766
 H        -2.363675        -0.143639         1.602783
 H        -4.063661         1.073818         0.338457
 H        -2.814029         1.839940        -0.318697
 H        -3.226274         0.342779        -1.119528
 H        -1.749617        -2.912606         1.065081
 H        -3.322643        -2.339346         1.669990
 H        -3.527204        -3.651591        -1.117847
