19
Iteration:  2939charge 0 multiplicity 1
 C         1.157927        -1.016169        -0.664530
 C        -0.140083        -0.563671        -0.345552
 C        -1.133725        -0.096772         0.129654
 C        -2.420731         0.050215         0.802186
 C        -3.199831         1.396994         0.609033
 O        -3.454565        -0.951589         0.454047
 C        -3.134597        -2.302400         0.805449
 C        -2.194576        -3.072279        -0.102021
 O        -2.139929        -4.266640        -0.060216
 H         1.275567        -1.323542        -1.675568
 H         2.067112        -0.421238        -0.525461
 H         1.388835        -1.966494        -0.013116
 H        -2.211719        -0.158580         1.874502
 H        -4.250293         1.174340         0.842353
 H        -2.902843         2.262240         1.110604
 H        -3.163353         1.672841        -0.486137
 H        -2.872383        -2.468288         1.880501
 H        -4.109554        -2.728951         0.666309
 H        -1.763496        -2.499120        -0.873569
