19
Iteration:  4357charge 0 multiplicity 1
 C         1.598007        -0.475056         0.059613
 C         0.192092        -0.487777         0.377627
 C        -0.943367        -0.478224         0.748674
 C        -2.349025        -0.270529         1.125814
 C        -2.628599         1.181103         0.849411
 O        -3.273417        -0.990815         0.233753
 C        -3.428662        -2.402134         0.418532
 C        -2.975365        -2.922984        -0.923132
 O        -2.828545        -4.129604        -1.000367
 H         1.813396        -1.483018        -0.344026
 H         1.869343         0.241130        -0.758612
 H         2.261472        -0.222837         0.938287
 H        -2.751214        -0.477474         2.135390
 H        -2.319149         1.574840         1.880816
 H        -2.097773         1.540866        -0.027532
 H        -3.734337         1.402341         0.567974
 H        -2.697275        -2.498985         1.107997
 H        -4.377824        -2.943889         0.510332
 H        -2.777365        -2.145208        -1.738523
