19
Iteration:  4838
 C         1.817909        -0.107552         0.357479
 C         0.371945        -0.160711         0.662253
 C        -0.800455        -0.214031         1.034502
 C        -2.186130        -0.375607         1.180513
 C        -2.786987         1.030870         1.050845
 O        -2.772507        -1.186969         0.084204
 C        -2.736411        -2.562437         0.078677
 C        -3.764688        -3.074302        -1.046716
 O        -3.759877        -4.224103        -1.428424
 H         2.344442        -0.488008        -0.577690
 H         1.958798         1.015558         0.366946
 H         2.398127        -0.504228         1.305369
 H        -2.354732        -0.931579         2.195635
 H        -2.610921         1.576009         1.990066
 H        -2.101986         1.568889         0.286118
 H        -3.833116         0.976762         0.757397
 H        -1.714604        -2.942515        -0.379561
 H        -2.864591        -2.963915         1.091394
 H        -4.563344        -2.374674        -1.471732
