19
Iteration:  2015
 C         1.198119        -0.860129        -0.384212
 C        -0.189797        -0.673500        -0.007578
 C        -1.262258        -0.147629         0.227278
 C        -2.641945         0.197789         0.617177
 C        -3.240260         1.135804        -0.405976
 O        -3.445589        -1.014063         0.695852
 C        -2.814922        -2.254738         1.067955
 C        -2.347352        -3.061914        -0.127337
 O        -1.992341        -4.236161         0.031661
 H         1.676077         0.174041        -0.341799
 H         1.590393        -1.544418         0.332425
 H         1.251878        -1.126404        -1.430260
 H        -2.571804         0.742213         1.567806
 H        -3.885193         1.844196         0.101284
 H        -2.605131         1.659257        -1.014815
 H        -3.893343         0.490355        -1.036269
 H        -2.019038        -2.081968         1.771132
 H        -3.500763        -2.918144         1.576096
 H        -2.296346        -2.470248        -1.079603
