19
Iteration:  2034
 C         1.177652        -0.965939        -0.488681
 C        -0.145590        -0.660076         0.000698
 C        -1.276741        -0.291094         0.440420
 C        -2.676146         0.077905         0.650434
 C        -3.273615         1.092779        -0.325590
 O        -3.557551        -1.037350         0.546347
 C        -2.831626        -2.139733         0.988095
 C        -2.234666        -2.918292        -0.161320
 O        -1.921066        -4.073093         0.129535
 H         1.618108        -0.136066        -0.974288
 H         1.814738        -1.377713         0.325297
 H         1.169488        -1.662581        -1.364693
 H        -2.746066         0.526087         1.674269
 H        -3.891558         1.877380         0.200557
 H        -2.414951         1.529469        -0.933554
 H        -3.881690         0.568882        -1.076475
 H        -1.883439        -1.962507         1.557172
 H        -3.491217        -2.672667         1.757419
 H        -2.349851        -2.470389        -1.291326
