19
Iteration:  1508charge 0 multiplicity 1
 C         1.599554         0.733899        -0.207559
 C         0.314539         0.188459         0.137478
 C        -0.890821         0.024467         0.058745
 C        -2.268864        -0.225273         0.320860
 C        -3.124219         1.010926        -0.034642
 O        -2.810154        -1.409911        -0.289993
 C        -2.458851        -2.530739         0.630136
 C        -3.280000        -3.833573         0.209211
 O        -3.625458        -4.792201         0.848034
 H         1.529953         1.110000        -1.210218
 H         1.796469         1.607533         0.463933
 H         2.411391         0.032601        -0.140280
 H        -2.436522        -0.328307         1.409308
 H        -4.137007         0.609326        -0.357853
 H        -3.490982         1.326818         0.932904
 H        -2.801748         1.881611        -0.760230
 H        -1.375231        -2.775875         0.485744
 H        -2.570294        -2.176718         1.657506
 H        -3.519926        -3.711643        -0.857144
