19
Iteration:  3122charge 0 multiplicity 1
 C         1.252223        -1.053066        -0.708244
 C        -0.092958        -0.727280        -0.205569
 C        -1.226044        -0.422321         0.114097
 C        -2.545740        -0.112398         0.850913
 C        -2.921730         1.328390         0.575240
 O        -3.667562        -0.969952         0.549325
 C        -3.392650        -2.298101         0.750379
 C        -2.381619        -2.853245        -0.298952
 O        -1.747390        -3.882587         0.006663
 H         2.016083        -0.283373        -0.414931
 H         1.538598        -2.050626        -0.405765
 H         1.027220        -0.963978        -1.797186
 H        -2.336247        -0.093746         1.937739
 H        -4.028011         1.410829         0.612516
 H        -2.512871         1.987642         1.307419
 H        -2.473905         1.626997        -0.438365
 H        -2.890147        -2.398661         1.731376
 H        -4.381565        -2.862435         0.800986
 H        -2.456766        -2.271702        -1.244179
