19
Iteration:   803charge 0 multiplicity 1
 C         1.501950        -0.192660         0.083733
 C         0.060765        -0.195909        -0.238025
 C        -1.092809         0.145167        -0.069886
 C        -2.594148         0.053332         0.257921
 C        -3.569381         0.940494        -0.578657
 O        -3.054169        -1.306684         0.128647
 C        -2.320448        -2.251131         1.004052
 C        -2.515443        -3.520678         0.239613
 O        -3.070575        -4.485200         0.711336
 H         1.665476        -0.996191         0.842346
 H         2.253673        -0.239128        -0.753892
 H         1.762195         0.799478         0.551159
 H        -2.626136         0.486696         1.291182
 H        -4.532489         0.494232        -0.235795
 H        -3.421694         1.969213        -0.175232
 H        -3.460116         0.901655        -1.599758
 H        -1.257044        -2.085483         0.936396
 H        -2.751773        -2.243501         2.020696
 H        -2.145619        -3.381376        -0.777929
