19
Iteration:  3738charge 0 multiplicity 1
 C         1.339454        -0.671943        -0.386416
 C        -0.072331        -0.644264        -0.089148
 C        -1.176699        -0.776020         0.419661
 C        -2.399829        -0.263915         0.869695
 C        -2.685945         1.276021         0.740637
 O        -3.560679        -0.895708         0.418971
 C        -3.589950        -2.316310         0.592926
 C        -2.619890        -2.857731        -0.451776
 O        -1.970794        -3.908644        -0.420529
 H         1.691647        -0.293016        -1.418212
 H         1.752767         0.011898         0.391799
 H         1.760334        -1.769869        -0.210435
 H        -2.196634        -0.594674         1.970471
 H        -1.786967         1.772937         0.345484
 H        -3.455783         1.436000        -0.072171
 H        -2.936339         1.628413         1.711315
 H        -3.386138        -2.536631         1.638077
 H        -4.604229        -2.628441         0.636317
 H        -2.717957        -2.306635        -1.413678
