19
Iteration:   993charge 0 multiplicity 1
 C         1.522195         0.094689        -0.255229
 C         0.101711        -0.147965        -0.083895
 C        -1.093125        -0.101080         0.224249
 C        -2.455661        -0.041019         0.391481
 C        -2.995963         1.053892        -0.651553
 O        -3.243352        -1.217628         0.103853
 C        -3.131413        -2.335534         0.951277
 C        -2.844797        -3.627433         0.160903
 O        -2.536537        -4.580431         0.799547
 H         2.001385        -0.133826        -1.225206
 H         1.632883         1.188114        -0.083464
 H         2.004246        -0.331736         0.656433
 H        -2.699774         0.262504         1.448638
 H        -3.983142         0.732626        -0.955555
 H        -3.005593         1.997874        -0.113705
 H        -2.233752         1.231960        -1.403881
 H        -2.305526        -2.116919         1.722005
 H        -4.071330        -2.504885         1.534310
 H        -2.947286        -3.532295        -0.945603
