19
Iteration:   615charge 0 multiplicity 1
 C         1.692521         0.660766        -0.184528
 C         0.290598         0.299229        -0.022126
 C        -0.888012        -0.015428         0.113849
 C        -2.323153        -0.209374         0.178374
 C        -3.030481         0.833950        -0.723395
 O        -2.946474        -1.486167        -0.100160
 C        -2.950705        -2.431717         1.046339
 C        -3.592572        -3.730122         0.665649
 O        -2.881747        -4.720331         0.727921
 H         1.960833         1.655068         0.310782
 H         2.284457        -0.227604         0.222387
 H         1.999703         0.827214        -1.203875
 H        -2.620350         0.056320         1.193851
 H        -3.981160         0.449922        -1.050138
 H        -3.248597         1.794947        -0.240198
 H        -2.505750         1.113627        -1.714762
 H        -1.857628        -2.623664         1.075309
 H        -3.355762        -2.006049         2.015249
 H        -4.651425        -3.861195         0.385823
