19
Iteration:   131charge 0 multiplicity 1
 C         1.631972         0.486843        -0.180683
 C         0.235871         0.020024        -0.078492
 C        -0.981124         0.054447        -0.052021
 C        -2.451069        -0.146251         0.026966
 C        -3.077071         0.605821        -1.136240
 O        -2.822395        -1.462471         0.027271
 C        -2.550834        -2.260381         1.226003
 C        -3.479797        -3.492788         1.013823
 O        -3.165576        -4.652377         0.864482
 H         1.786743         0.899275        -1.204354
 H         1.901551         1.306392         0.530210
 H         2.404599        -0.328357        -0.148233
 H        -2.821116         0.413156         0.985598
 H        -3.228724         1.667938        -0.839953
 H        -2.372248         0.671768        -1.926913
 H        -3.986417         0.124749        -1.496092
 H        -1.469574        -2.524504         1.245476
 H        -2.767592        -1.689384         2.196527
 H        -4.433276        -3.153874         0.498015
