19
Iteration:  1331
 C         1.496245         0.315294        -0.218971
 C         0.116505         0.256039         0.044133
 C        -1.051338         0.085863         0.266895
 C        -2.471884        -0.053964         0.427487
 C        -2.995410         1.123448        -0.323678
 O        -2.819185        -1.358089        -0.160027
 C        -2.615871        -2.521347         0.822881
 C        -3.227586        -3.750815         0.216978
 O        -3.054071        -4.874936         0.624537
 H         1.997263        -0.498492         0.283216
 H         1.592054         0.341958        -1.268788
 H         1.802431         1.244641         0.185361
 H        -2.827262        -0.016385         1.448345
 H        -2.291631         1.845080        -0.791135
 H        -3.939392         0.898925        -0.894831
 H        -3.356201         1.805101         0.435551
 H        -1.524258        -2.655329         0.983526
 H        -3.273966        -2.461686         1.711043
 H        -4.065065        -3.466750        -0.431723
