19
Iteration:   409charge 0 multiplicity 1
 C         1.536734         0.230401         0.054380
 C         0.117867        -0.108057         0.261213
 C        -1.106177         0.079536         0.089750
 C        -2.581819        -0.041150         0.177347
 C        -3.519014         0.891164        -0.728157
 O        -2.756294        -1.454322        -0.349908
 C        -2.059113        -2.548889         0.323618
 C        -3.101796        -3.622240         0.407580
 O        -3.207500        -4.229546         1.473243
 H         1.583960         0.968700        -0.805473
 H         1.885968         0.770222         0.961530
 H         2.218428        -0.663359        -0.077398
 H        -3.057296        -0.063446         1.154184
 H        -4.227820         0.302476        -1.242367
 H        -4.053485         1.552082         0.003728
 H        -2.863033         1.522127        -1.358577
 H        -1.329619        -2.891251        -0.409447
 H        -1.594011        -2.401187         1.302809
 H        -3.441196        -3.939370        -0.580828
