19
Iteration:   690
 C         1.521846         0.254437        -0.320977
 C         0.138048         0.125272         0.068562
 C        -1.064073         0.299542         0.297436
 C        -2.529642         0.058281         0.421763
 C        -3.017402         0.867879        -0.707742
 O        -2.887159        -1.390099        -0.012324
 C        -2.712713        -2.383589         0.943451
 C        -3.184518        -3.714349         0.339844
 O        -2.923456        -4.831047         0.778548
 H         1.603468         0.729839        -1.370941
 H         1.959403         1.040633         0.405659
 H         2.180189        -0.632709        -0.247619
 H        -3.037873         0.270643         1.397304
 H        -4.018503         1.231519        -0.686738
 H        -2.325132         1.563889        -1.162974
 H        -3.024242         0.236474        -1.677202
 H        -1.747455        -2.501049         1.302776
 H        -3.402338        -2.039396         1.757251
 H        -3.886794        -3.682332        -0.541738
