19
Iteration:  1228
 C         1.607761         0.003446         0.208071
 C         0.097505         0.097206        -0.063456
 C        -1.131242         0.017331         0.056861
 C        -2.558338         0.037856         0.277022
 C        -3.360230         1.183873        -0.474022
 O        -3.174494        -1.309422         0.298924
 C        -2.185514        -2.435845         0.268192
 C        -3.131599        -3.641239         0.249716
 O        -2.851515        -4.746207         0.746160
 H         2.182488         0.148928        -0.697400
 H         1.957770         0.697747         0.987028
 H         1.757326        -1.026611         0.612636
 H        -2.625090         0.373718         1.308717
 H        -4.252798         0.844236        -0.949222
 H        -3.717775         1.998004         0.148631
 H        -2.660438         1.683967        -1.229825
 H        -1.425518        -2.399000        -0.573223
 H        -1.545500        -2.528448         1.183401
 H        -4.176607        -3.284762         0.154401
