19
Iteration:  1322
 C         1.478895         0.326510        -0.153740
 C         0.066366         0.207729         0.019077
 C        -1.091840         0.025393         0.257726
 C        -2.434973        -0.074204         0.374569
 C        -3.008032         1.199699        -0.267626
 O        -2.896987        -1.367522        -0.202777
 C        -2.552719        -2.442518         0.774201
 C        -3.201122        -3.746825         0.238995
 O        -3.033347        -4.906744         0.638292
 H         1.960891        -0.614027         0.098549
 H         1.817140         0.477708        -1.228749
 H         1.955333         1.110888         0.418476
 H        -2.672815        -0.081607         1.466126
 H        -2.322125         1.466329        -1.105422
 H        -3.955375         0.994164        -0.818774
 H        -3.086258         1.900152         0.580776
 H        -1.530886        -2.345225         1.158440
 H        -3.072622        -2.298572         1.753156
 H        -4.143754        -3.409840        -0.290831
