19
Iteration:  4660
 C         1.719931        -0.627330         0.217447
 C         0.262264        -0.433425         0.516570
 C        -0.876423        -0.226818         0.952942
 C        -2.355450        -0.105121         1.146929
 C        -3.064119         1.251461         0.907965
 O        -3.038008        -1.107859         0.275741
 C        -2.592075        -2.461777         0.206006
 C        -3.211538        -3.013815        -0.986764
 O        -3.450666        -4.168552        -1.288439
 H         2.261511        -1.200645         1.003932
 H         1.925851        -0.917700        -0.791644
 H         2.083178         0.421996         0.275830
 H        -2.674355        -0.372593         2.155247
 H        -2.840599         1.872670         1.824610
 H        -2.739217         1.522518        -0.054831
 H        -4.158583         0.989098         0.880578
 H        -1.484009        -2.339203        -0.055283
 H        -2.557904        -3.196439         1.051282
 H        -3.463257        -2.161097        -1.740565
