19
Iteration:  1359charge 0 multiplicity 1
 C         1.680478         0.389223        -0.385730
 C         0.269694         0.286184         0.129857
 C        -0.886475         0.156305         0.526754
 C        -2.400852        -0.053589         0.497837
 C        -3.262138         0.904689        -0.419932
 O        -2.796218        -1.354034        -0.068196
 C        -2.741154        -2.496845         0.860818
 C        -3.305472        -3.717348         0.091066
 O        -3.133386        -4.819834         0.583900
 H         2.379952         0.009099         0.416081
 H         1.706387        -0.255540        -1.311461
 H         1.963527         1.463560        -0.656119
 H        -2.782038        -0.029083         1.561286
 H        -2.689042         1.783345        -0.673730
 H        -3.623247         0.340020        -1.263233
 H        -4.221051         1.293240         0.046282
 H        -1.689758        -2.743943         0.978162
 H        -3.296397        -2.385425         1.813497
 H        -3.972287        -3.545236        -0.836703
