19
Iteration:    21charge 0 multiplicity 1
 C         1.618850         0.186192        -0.143199
 C         0.185300        -0.137148        -0.203045
 C        -1.025450         0.103805        -0.028802
 C        -2.472300        -0.060992         0.111471
 C        -3.168535         0.612752        -1.015086
 O        -2.851337        -1.433665        -0.174308
 C        -2.610871        -2.116624         1.036166
 C        -3.218235        -3.463505         0.742383
 O        -3.080921        -4.497608         1.312790
 H         1.865488         0.546529         0.848219
 H         2.302155        -0.671285        -0.381463
 H         1.723911         1.039909        -0.910081
 H        -2.910838         0.150937         1.058942
 H        -3.384031        -0.124429        -1.744311
 H        -4.164913         1.013271        -0.712039
 H        -2.523620         1.364946        -1.521282
 H        -1.522957        -2.089840         1.291608
 H        -3.152690        -1.777619         1.929175
 H        -3.874258        -3.272397        -0.128098
