19
Iteration:   165
 C         1.511956         0.541125        -0.268920
 C         0.224152         0.026257         0.090909
 C        -0.958506        -0.148046         0.174515
 C        -2.412333        -0.086697         0.037348
 C        -3.046959         0.598030        -1.172350
 O        -2.862835        -1.380877         0.032655
 C        -2.444800        -2.319504         1.007912
 C        -3.455615        -3.450716         0.876957
 O        -3.169873        -4.641915         0.964802
 H         1.692913         0.187540        -1.334037
 H         1.472209         1.648774        -0.282524
 H         2.279694         0.187594         0.415610
 H        -2.759377         0.487879         1.015820
 H        -2.399123         1.417579        -1.576947
 H        -3.260162        -0.150306        -1.881415
 H        -3.951862         1.062434        -0.844669
 H        -1.407450        -2.688365         0.844516
 H        -2.601509        -1.938119         2.086847
 H        -4.413088        -3.010876         0.588878
