19
Iteration:   819charge 0 multiplicity 1
 C         1.499715        -0.291550         0.095880
 C         0.050538         0.117608        -0.200596
 C        -1.155567         0.142044        -0.190844
 C        -2.518115         0.033854         0.286470
 C        -3.503086         0.859114        -0.484957
 O        -3.068013        -1.296887         0.112768
 C        -2.389877        -2.145130         0.969877
 C        -2.520780        -3.555253         0.310348
 O        -3.060511        -4.551301         0.667064
 H         1.467715        -0.946544         0.958008
 H         1.897064        -0.846725        -0.748337
 H         2.156685         0.555527         0.348641
 H        -2.521130         0.218148         1.369321
 H        -4.568695         0.840364        -0.295607
 H        -3.337484         1.934305        -0.437875
 H        -3.339231         0.357674        -1.537958
 H        -1.305854        -1.934577         1.094613
 H        -2.811701        -2.194444         1.978562
 H        -1.999638        -3.554011        -0.717155
