19
Iteration:  3514
 C         1.213855        -0.902585        -0.575341
 C        -0.035868        -0.435792        -0.009310
 C        -1.027245        -0.108941         0.625566
 C        -2.451013        -0.050394         0.940653
 C        -2.950689         1.362353         0.579941
 O        -3.444827        -0.969621         0.367226
 C        -3.295633        -2.407203         0.699086
 C        -2.459086        -3.084021        -0.315887
 O        -2.233259        -4.252361        -0.477055
 H         1.034022        -1.572049        -1.520461
 H         1.788163        -0.002288        -1.070565
 H         1.842064        -1.630461        -0.077955
 H        -2.512111         0.010519         2.051575
 H        -2.295172         2.097407         1.126855
 H        -2.981856         1.395110        -0.569716
 H        -3.939793         1.461569         1.004269
 H        -2.703507        -2.632096         1.615495
 H        -4.245579        -2.857671         0.884957
 H        -1.915691        -2.399127        -1.115506
