19
Iteration:  3187
 C         1.083231        -1.232947        -0.598445
 C        -0.180055        -0.592420        -0.237791
 C        -1.193095        -0.143727         0.325210
 C        -2.498968        -0.000181         0.892045
 C        -3.070306         1.430233         0.649230
 O        -3.576511        -0.952737         0.364220
 C        -3.075956        -2.232929         0.711025
 C        -2.396648        -3.053328        -0.349843
 O        -1.785247        -4.037376        -0.080586
 H         1.590382        -0.692498        -1.498116
 H         1.870723        -1.462976         0.137095
 H         0.853534        -2.302417        -0.794605
 H        -2.438608        -0.367087         1.915988
 H        -3.234430         1.845450         1.650764
 H        -2.409655         2.131023         0.200826
 H        -4.059790         1.343447         0.070353
 H        -2.452876        -2.316972         1.612144
 H        -4.003305        -2.785656         0.822069
 H        -2.780540        -2.834035        -1.440234
