19
Iteration:  4892
 C         1.860384        -0.066030         0.365244
 C         0.423660        -0.165047         0.882337
 C        -0.773928        -0.359060         0.977492
 C        -2.188371        -0.429378         1.130032
 C        -3.068416         0.896620         1.052830
 O        -2.757383        -1.143543        -0.036624
 C        -2.554353        -2.546827        -0.024129
 C        -3.517979        -2.990217        -1.063392
 O        -4.000044        -4.080470        -1.252541
 H         2.288972        -1.095923         0.499801
 H         2.060964         0.049445        -0.717883
 H         2.646306         0.647786         0.705743
 H        -2.293309        -0.956057         2.084237
 H        -2.552619         1.649315         1.643832
 H        -3.088812         1.328520         0.004688
 H        -4.014821         0.700540         1.529502
 H        -1.566702        -2.988309        -0.351659
 H        -2.649330        -2.875970         0.981405
 H        -3.767879        -2.158738        -1.723717
