19
Iteration:  3391charge 0 multiplicity 1
 C         1.376728        -0.785053        -0.427409
 C         0.006160        -0.611118         0.025961
 C        -1.198884        -0.461710         0.172064
 C        -2.438793        -0.101529         0.844906
 C        -2.871074         1.361701         0.375814
 O        -3.633113        -0.992515         0.636804
 C        -3.212115        -2.427371         0.898546
 C        -2.777967        -3.009255        -0.413567
 O        -1.958608        -3.924620        -0.416906
 H         2.043707        -0.108706         0.108324
 H         1.780042        -1.863285        -0.207920
 H         1.658924        -0.591316        -1.490302
 H        -2.169665        -0.153696         1.914889
 H        -2.020553         1.995929         0.062651
 H        -3.406569         1.007123        -0.477271
 H        -3.575168         1.866265         1.132985
 H        -2.588155        -2.562754         1.764237
 H        -4.156254        -2.994073         1.053563
 H        -3.552721        -2.704725        -1.184661
