19
Iteration:  4459charge 0 multiplicity 1
 C         1.753032        -0.480591         0.231371
 C         0.313654        -0.355722         0.335492
 C        -0.874471        -0.485669         0.545548
 C        -2.202954        -0.179388         1.062887
 C        -2.927037         1.304484         1.075708
 O        -3.236260        -0.957758         0.185667
 C        -3.268021        -2.362214         0.388662
 C        -3.080721        -3.096790        -0.940870
 O        -3.032308        -4.290266        -1.097987
 H         2.186815         0.048169         1.093408
 H         1.922411        -1.586788         0.382372
 H         2.117910        -0.215549        -0.745018
 H        -2.541572        -0.533589         2.076330
 H        -2.020235         1.837050         1.383222
 H        -3.219660         1.743825         0.038249
 H        -3.693645         1.092989         1.859427
 H        -2.488628        -2.705848         0.947104
 H        -4.194936        -2.687172         0.892388
 H        -3.194551        -2.359601        -1.846107
