19
Iteration:  1874
 C         1.434981        -0.251030        -0.363997
 C         0.040997        -0.114236         0.057424
 C        -1.160187        -0.052340         0.276288
 C        -2.530750         0.116700         0.613325
 C        -3.095011         0.943156        -0.576949
 O        -3.312334        -1.127390         0.686112
 C        -2.580950        -2.325801         0.986178
 C        -2.938057        -3.412785        -0.057790
 O        -2.578751        -4.577448         0.144295
 H         1.599175        -1.366297        -0.611241
 H         1.535810         0.242368        -1.297093
 H         2.071280         0.075917         0.447091
 H        -2.669505         0.686915         1.560643
 H        -3.920606         1.616108        -0.246464
 H        -2.389209         1.688449        -0.862977
 H        -3.266727         0.239483        -1.431664
 H        -1.462574        -2.150085         0.849218
 H        -2.739360        -2.695117         1.996339
 H        -3.412311        -3.120759        -0.961640
