19
Iteration:  4127charge 0 multiplicity 1
 C         1.083609        -1.178776        -0.214716
 C        -0.172011        -0.894640         0.242239
 C        -1.163046        -0.384027         0.689967
 C        -2.477296        -0.044550         1.188672
 C        -2.779499         1.379251         0.722680
 O        -3.443127        -0.907803         0.526991
 C        -3.153416        -2.260274         0.618511
 C        -2.569489        -2.801456        -0.845077
 O        -2.068020        -3.904134        -1.061835
 H         1.694622        -1.914553         0.262777
 H         1.154666        -1.387595        -1.259643
 H         1.692604        -0.282331        -0.101640
 H        -2.588015        -0.386473         2.270819
 H        -1.760498         1.842480         0.777399
 H        -3.084588         1.501557        -0.312637
 H        -3.562331         1.940393         1.144821
 H        -2.430806        -2.488969         1.421917
 H        -4.079068        -2.808001         0.959467
 H        -2.929223        -2.006544        -1.540328
