19
Iteration:  3197
 C         1.040923        -1.301242        -0.601314
 C        -0.114915        -0.484848        -0.123046
 C        -1.155300        -0.087003         0.307137
 C        -2.511221        -0.036856         0.835440
 C        -3.085606         1.369824         0.646608
 O        -3.533554        -0.912700         0.400089
 C        -3.107055        -2.237099         0.693369
 C        -2.442855        -3.054447        -0.396822
 O        -1.780480        -4.076594        -0.078319
 H         1.263857        -1.030923        -1.714257
 H         1.921166        -1.141973         0.060390
 H         0.623328        -2.275305        -0.759670
 H        -2.412705        -0.188870         1.925315
 H        -3.219282         1.834815         1.622967
 H        -2.531439         1.936199        -0.036269
 H        -4.140670         1.248084         0.220507
 H        -2.393082        -2.281803         1.541810
 H        -3.915861        -2.899847         0.957106
 H        -2.490369        -2.579142        -1.388795
