19
Iteration:  4853
 C         1.815576        -0.051036         0.397110
 C         0.417477        -0.154897         0.659214
 C        -0.757651        -0.141548         1.043654
 C        -2.241108        -0.440409         1.201984
 C        -2.808564         0.973025         1.031338
 O        -2.731995        -1.143930         0.088139
 C        -2.675523        -2.636016        -0.009029
 C        -3.680112        -3.060320        -0.988225
 O        -3.866073        -4.194682        -1.419961
 H         1.844309        -0.964778        -0.202541
 H         2.059718         0.782392        -0.219432
 H         2.334266        -0.320096         1.284025
 H        -2.609751        -0.879180         2.128668
 H        -2.628308         1.590097         1.976067
 H        -2.402003         1.383145         0.166338
 H        -3.898193         0.984158         0.777067
 H        -1.676978        -2.924345        -0.292114
 H        -2.997920        -3.179321         0.945750
 H        -4.170404        -2.124743        -1.417034
