19
Iteration:  3570
 C         1.035333        -0.937764        -0.740701
 C        -0.091797        -0.609403         0.205147
 C        -1.058721        -0.118647         0.774956
 C        -2.513178        -0.016448         1.021972
 C        -3.012429         1.518810         0.715634
 O        -3.375664        -0.903476         0.202955
 C        -3.074206        -2.250757         0.475949
 C        -2.166226        -3.187807        -0.437281
 O        -2.385723        -4.387708        -0.355310
 H         1.345394        -2.039649        -0.542111
 H         0.744181        -0.713966        -1.803567
 H         1.860937        -0.327493        -0.346890
 H        -2.765884        -0.057942         2.086810
 H        -2.187214         2.243894         0.845968
 H        -3.347312         1.700979        -0.326645
 H        -3.913102         1.734128         1.341018
 H        -2.427090        -2.387239         1.337939
 H        -3.908639        -2.879459         0.674668
 H        -1.491469        -2.596627        -1.108870
