19
Iteration:  2861
 C         1.255340        -0.823371        -0.748305
 C        -0.016965        -0.442037        -0.177485
 C        -1.101623        -0.096877         0.402391
 C        -2.515145         0.157867         0.905260
 C        -3.284082         1.436799         0.314839
 O        -3.248367        -1.047968         0.508779
 C        -2.884177        -2.401274         0.782427
 C        -2.591843        -3.259629        -0.352956
 O        -2.294226        -4.342317         0.058704
 H         2.007038        -0.014673        -0.820894
 H         1.710538        -1.510965        -0.019058
 H         1.274215        -1.428931        -1.767324
 H        -2.524979         0.188753         2.026015
 H        -4.117831         1.761069         0.957504
 H        -2.604144         2.308071         0.353316
 H        -3.584142         1.291986        -0.717128
 H        -2.103698        -2.645737         1.514641
 H        -3.773908        -2.748388         1.288555
 H        -2.780598        -3.018858        -1.484142
