19
Iteration:  3790
 C         1.326203        -0.796574        -0.529735
 C         0.006168        -0.726525         0.151067
 C        -1.141425        -0.501186         0.461266
 C        -2.460008        -0.134507         0.976938
 C        -2.740280         1.297168         0.742082
 O        -3.565447        -0.933709         0.543281
 C        -3.502595        -2.349353         0.408856
 C        -2.574492        -2.901156        -0.625621
 O        -2.006230        -3.942975        -0.372182
 H         1.127240        -1.621365        -1.276172
 H         1.494392         0.001650        -1.264207
 H         1.975980        -1.133648         0.191481
 H        -2.305131        -0.313454         2.038696
 H        -1.895559         1.920757         1.050081
 H        -3.086747         1.398771        -0.314143
 H        -3.542127         1.526636         1.489288
 H        -3.455055        -2.814887         1.445737
 H        -4.591334        -2.533577         0.318907
 H        -2.377959        -2.255153        -1.521912
