19
Iteration:   631
 C         1.635954         0.588175        -0.242658
 C         0.259894         0.259962         0.125092
 C        -0.943304        -0.013939         0.101921
 C        -2.392528        -0.248599         0.273948
 C        -3.004211         0.737128        -0.665673
 O        -2.928758        -1.510703        -0.171888
 C        -2.873770        -2.312663         0.945916
 C        -3.487344        -3.631066         0.639455
 O        -2.867920        -4.655378         0.720791
 H         1.767043         1.648816        -0.215140
 H         2.347029         0.070249         0.332348
 H         1.744064         0.352863        -1.345757
 H        -2.805410        -0.160915         1.332741
 H        -4.047629         0.468989        -0.979944
 H        -3.059956         1.675182        -0.101056
 H        -2.383870         0.600596        -1.518247
 H        -1.902525        -2.542248         1.516265
 H        -3.534699        -1.782210         1.637900
 H        -4.558662        -3.456968         0.349693
