19
Iteration:  3212
 C         0.954654        -1.319632        -0.653339
 C        -0.012610        -0.426742        -0.001741
 C        -1.154517        -0.132515         0.248617
 C        -2.474797         0.087962         0.919774
 C        -3.221236         1.422912         0.616242
 O        -3.420579        -0.971684         0.382727
 C        -3.169636        -2.308272         0.736615
 C        -2.369663        -3.037847        -0.391964
 O        -1.828033        -4.099899        -0.140255
 H         1.062128        -1.194225        -1.714684
 H         1.980097        -1.257887        -0.314667
 H         0.831069        -2.375256        -0.183847
 H        -2.391723        -0.182505         1.985137
 H        -2.981497         2.129399         1.449755
 H        -2.750019         1.926315        -0.325541
 H        -4.267635         1.228913         0.424556
 H        -2.421109        -2.474071         1.526423
 H        -4.200907        -2.734845         0.984788
 H        -2.338651        -2.538995        -1.488588
