19
Iteration:   859charge 0 multiplicity 1
 C         1.442085        -0.363193        -0.065365
 C         0.119534         0.245118         0.003727
 C        -1.115514         0.354300        -0.042548
 C        -2.589147         0.120483         0.203235
 C        -3.506895         1.076311        -0.617250
 O        -2.951146        -1.319939         0.077604
 C        -2.557237        -2.373316         1.071862
 C        -2.483428        -3.683965         0.289240
 O        -2.988537        -4.683341         0.701477
 H         2.038164        -0.371677         0.863273
 H         1.167142        -1.403363        -0.232579
 H         2.142569        -0.004233        -0.920358
 H        -2.732900         0.334918         1.312904
 H        -4.258247         1.463131         0.026925
 H        -2.911913         1.889420        -1.100158
 H        -3.988756         0.544425        -1.415964
 H        -1.646627        -2.077983         1.688401
 H        -3.424662        -2.402863         1.785942
 H        -1.916282        -3.642789        -0.660202
