19
Iteration:  4241
 C         1.425557        -1.157453        -0.090741
 C         0.031674        -0.576316         0.176070
 C        -1.003296        -0.227697         0.725460
 C        -2.501224        -0.065195         1.064294
 C        -2.991708         1.428866         1.018373
 O        -3.370732        -0.935152         0.260791
 C        -3.085047        -2.332591         0.548237
 C        -2.506047        -2.935391        -0.756247
 O        -2.649031        -4.086152        -1.153556
 H         2.066157        -0.287895        -0.370426
 H         1.675477        -1.567651         0.943236
 H         1.482987        -1.993596        -0.784995
 H        -2.491155        -0.155501         2.209473
 H        -2.443615         2.067715         1.634666
 H        -3.160611         1.763800        -0.012081
 H        -4.069274         1.402380         1.291013
 H        -2.345142        -2.564287         1.339898
 H        -3.947836        -2.794495         0.958045
 H        -1.748408        -2.334747        -1.278740
