19
Iteration:   727charge 0 multiplicity 1
 C         1.609781         0.067429        -0.196937
 C         0.141161         0.324382        -0.020820
 C        -0.996834        -0.000332         0.320666
 C        -2.603164         0.061852         0.263535
 C        -3.218680         0.954341        -0.795128
 O        -3.148113        -1.327327         0.191890
 C        -2.502221        -2.412396         0.919203
 C        -2.937298        -3.652441         0.212782
 O        -2.995680        -4.714335         0.816269
 H         1.723793        -0.508241        -1.121619
 H         2.176462         0.999037        -0.305983
 H         2.018606        -0.531590         0.625917
 H        -2.930415         0.493727         1.202320
 H        -4.329832         0.829953        -0.687872
 H        -2.944144         2.001626        -0.608104
 H        -2.919328         0.472956        -1.649750
 H        -1.419224        -2.297448         0.895867
 H        -2.824410        -2.630662         1.926011
 H        -3.027885        -3.499043        -0.901353
