19
Iteration:  2436charge 0 multiplicity 1
 C         1.494358        -0.222216        -0.603240
 C        -0.009052        -0.529403        -0.400221
 C        -1.052017        -0.151030         0.070929
 C        -2.385342        -0.012628         0.702736
 C        -3.029035         1.376403         0.255130
 O        -3.337129        -1.048965         0.266716
 C        -3.338638        -2.316534         0.842895
 C        -2.581070        -3.408665         0.055622
 O        -2.426852        -4.597096         0.427464
 H         1.993590        -1.092521        -0.861699
 H         1.625816         0.561285        -1.349695
 H         1.893115         0.248975         0.340181
 H        -2.318167        -0.124635         1.788350
 H        -4.079549         1.462630         0.487028
 H        -2.458860         2.209281         0.621468
 H        -2.939931         1.329555        -0.857568
 H        -2.927624        -2.481152         1.863866
 H        -4.351410        -2.747284         0.747169
 H        -2.252811        -3.083348        -1.047854
