19
Iteration:  1494
 C         1.723644         0.733567        -0.236141
 C         0.374322         0.344693         0.167538
 C        -0.812930        -0.021261         0.111818
 C        -2.275253        -0.171814         0.298080
 C        -3.266453         0.907927        -0.039548
 O        -2.870778        -1.445579        -0.227196
 C        -2.569564        -2.491504         0.651110
 C        -3.303555        -3.772444         0.204451
 O        -3.591542        -4.830467         0.797739
 H         1.645696         1.313460        -1.223480
 H         2.339976         1.345108         0.448685
 H         2.325691        -0.162193        -0.476339
 H        -2.277134        -0.327067         1.410115
 H        -4.201051         0.456970        -0.349354
 H        -3.174815         1.717174         0.670684
 H        -2.869121         1.400345        -0.938057
 H        -1.509916        -2.768330         0.615628
 H        -2.805645        -2.285245         1.694531
 H        -3.391879        -3.859767        -0.940522
