19
Iteration:  2043
 C         1.197473        -1.027170        -0.560999
 C        -0.145999        -0.609511         0.016631
 C        -1.240699        -0.336124         0.454383
 C        -2.749176         0.120726         0.672291
 C        -3.228722         1.105882        -0.303227
 O        -3.599262        -1.033582         0.490580
 C        -2.857429        -2.158446         1.010660
 C        -2.246362        -2.937751        -0.135955
 O        -1.845396        -4.033316         0.123473
 H         1.625942        -0.222922        -1.112682
 H         1.878930        -1.279494         0.320615
 H         0.992050        -1.982348        -1.151664
 H        -2.829160         0.507370         1.725525
 H        -3.896961         1.871780         0.202169
 H        -2.445401         1.768519        -0.892156
 H        -3.859264         0.525168        -0.959870
 H        -2.155710        -1.717832         1.771129
 H        -3.496381        -2.996814         1.481932
 H        -2.288209        -2.492590        -1.121774
