19
Iteration:   888charge 0 multiplicity 1
 C         1.421462        -0.229997        -0.221276
 C         0.008696        -0.142883         0.034540
 C        -1.123527         0.243322         0.304336
 C        -2.549256         0.147242         0.326697
 C        -3.404066         0.945589        -0.629426
 O        -2.894052        -1.232881        -0.055903
 C        -2.705861        -2.193174         0.918266
 C        -2.566934        -3.572577         0.305881
 O        -2.864907        -4.699738         0.727867
 H         1.984504         0.568218         0.319186
 H         1.725549        -1.212654         0.246175
 H         1.666843        -0.214207        -1.257574
 H        -2.957190         0.189866         1.352735
 H        -4.256772         1.616677        -0.226177
 H        -2.912090         1.740711        -1.207374
 H        -3.837074         0.143091        -1.190219
 H        -1.790545        -2.025218         1.529885
 H        -3.446193        -1.920684         1.711019
 H        -1.849838        -3.554806        -0.566091
