19
Iteration:  4514
 C         1.700896        -0.644077         0.142024
 C         0.286655        -0.302980         0.454257
 C        -0.916536        -0.266285         0.690556
 C        -2.341680        -0.133427         1.077997
 C        -2.955451         1.271586         1.035068
 O        -3.126168        -0.977805         0.201329
 C        -3.012986        -2.412385         0.377653
 C        -3.027883        -3.098625        -0.951969
 O        -3.207933        -4.284395        -1.167307
 H         2.058618         0.233812        -0.459329
 H         2.370222        -0.898477         1.001517
 H         1.754035        -1.432296        -0.607396
 H        -2.617800        -0.497774         2.141709
 H        -2.674178         1.751411         2.022936
 H        -2.557506         1.778139         0.070808
 H        -4.071482         1.132256         1.047912
 H        -2.148292        -2.790298         0.855037
 H        -3.796781        -2.791997         1.051342
 H        -2.635455        -2.456751        -1.702230
