19
Iteration:   858
 C         1.438775        -0.364802        -0.061410
 C         0.116867         0.262264         0.003010
 C        -1.120545         0.345583        -0.046439
 C        -2.575998         0.116896         0.192105
 C        -3.512382         1.081123        -0.615104
 O        -2.954860        -1.328679         0.087608
 C        -2.552473        -2.371201         1.066787
 C        -2.485866        -3.685906         0.288044
 O        -2.990906        -4.675078         0.701627
 H         2.025382        -0.399772         0.892880
 H         1.160922        -1.422813        -0.265934
 H         2.152575        -0.008104        -0.891544
 H        -2.663212         0.343202         1.311171
 H        -4.293933         1.438247         0.053866
 H        -2.899952         1.867927        -1.120195
 H        -3.954470         0.559099        -1.410865
 H        -1.603340        -2.078998         1.701565
 H        -3.450473        -2.418665         1.780739
 H        -1.896304        -3.641511        -0.675105
