19
Iteration:  3049charge 0 multiplicity 1
 C         1.102093        -0.849294        -0.890073
 C        -0.236542        -0.833169        -0.127767
 C        -1.150622        -0.427922         0.612254
 C        -2.472297        -0.017043         0.893683
 C        -2.875058         1.404818         0.401225
 O        -3.496402        -0.969829         0.405090
 C        -3.355608        -2.342899         0.725653
 C        -2.500643        -3.058646        -0.320996
 O        -1.749253        -3.935471         0.071187
 H         1.738522        -1.476711        -0.372464
 H         0.864533        -1.200906        -1.878135
 H         1.474079         0.225273        -0.903297
 H        -2.463982        -0.055642         1.988630
 H        -3.870804         1.777348         0.631613
 H        -2.149888         1.958351         1.013245
 H        -2.518048         1.530888        -0.642629
 H        -2.907464        -2.618371         1.695711
 H        -4.413042        -2.579708         0.698029
 H        -2.792067        -2.787328        -1.451066
