19
Iteration:  2259charge 0 multiplicity 1
 C         1.042813        -1.102913        -0.800621
 C        -0.108969        -0.695080        -0.088784
 C        -1.281008        -0.297488         0.128077
 C        -2.549173        -0.021309         0.597247
 C        -3.170979         1.381349         0.481421
 O        -3.469417        -0.963480        -0.018071
 C        -3.487092        -2.293196         0.488487
 C        -2.164950        -3.030316         0.146467
 O        -1.526244        -3.926104         0.739322
 H         2.011700        -0.915370        -0.347111
 H         0.931186        -2.184824        -0.952395
 H         0.926271        -0.519662        -1.707852
 H        -2.514445        -0.160537         1.711906
 H        -4.065917         1.422972         1.085651
 H        -2.458898         2.094038         0.912349
 H        -3.374906         1.663778        -0.513640
 H        -3.689490        -2.177544         1.598704
 H        -4.242856        -2.968118         0.024646
 H        -1.780214        -2.507949        -0.849654
