19
Iteration:  4924
 C         1.840114        -0.046639         0.444935
 C         0.393206        -0.397575         0.731408
 C        -0.772371        -0.175441         0.976578
 C        -2.155214        -0.399600         1.086586
 C        -2.998440         0.888775         1.222844
 O        -2.779728        -1.103933        -0.062397
 C        -2.552196        -2.488860        -0.166691
 C        -3.435307        -3.068751        -1.265957
 O        -4.055813        -4.110681        -1.046002
 H         2.367131        -0.430568         1.329921
 H         2.152162        -0.600551        -0.472408
 H         2.071861         1.041431         0.466988
 H        -2.267746        -1.032731         1.942821
 H        -2.477926         1.514164         1.902437
 H        -3.361643         1.393910         0.303569
 H        -3.951305         0.798465         1.674862
 H        -1.587682        -2.841847        -0.486336
 H        -2.885808        -2.974322         0.752547
 H        -3.410199        -2.381062        -2.163664
