19
Iteration:   702
 C         1.507281         0.194022        -0.260300
 C         0.097360         0.227396         0.009120
 C        -1.071929         0.255739         0.307688
 C        -2.482507         0.018566         0.400275
 C        -3.038297         0.824652        -0.768228
 O        -2.949897        -1.231305         0.047469
 C        -2.679824        -2.380112         0.912011
 C        -3.125426        -3.759926         0.298729
 O        -2.941499        -4.838047         0.798606
 H         1.676992         0.190082        -1.412220
 H         2.081077         1.092703         0.168159
 H         1.914939        -0.752389         0.091114
 H        -2.846831         0.356658         1.390172
 H        -4.030590         1.180211        -0.501818
 H        -2.408556         1.686282        -0.883845
 H        -3.075217         0.005121        -1.527114
 H        -1.666681        -2.418039         1.124790
 H        -3.181146        -2.442945         1.901442
 H        -3.537730        -3.574725        -0.737901
