19
Iteration:  3806
 C         1.236177        -0.936810        -0.554003
 C         0.014043        -0.680636         0.086528
 C        -1.130642        -0.583075         0.467304
 C        -2.417093        -0.126900         1.080409
 C        -2.887915         1.359424         0.791479
 O        -3.542756        -0.847214         0.481316
 C        -3.476285        -2.266779         0.464270
 C        -2.505518        -2.925303        -0.566121
 O        -1.983239        -4.009707        -0.452406
 H         1.436458        -1.930411        -0.951902
 H         1.470930        -0.087019        -1.226729
 H         2.242449        -0.711800         0.008370
 H        -2.539316        -0.302961         2.170090
 H        -2.246778         2.124359         1.279736
 H        -2.718374         1.653457        -0.249647
 H        -3.910182         1.486121         1.166965
 H        -3.260079        -2.747593         1.432636
 H        -4.450436        -2.668995         0.125100
 H        -2.443257        -2.381804        -1.544473
