19
Iteration:   255charge 0 multiplicity 1
 C         1.629457         0.455886        -0.027123
 C         0.203290         0.075599        -0.003625
 C        -1.009969        -0.035646         0.000793
 C        -2.475287        -0.108644         0.049815
 C        -3.111025         0.894882        -0.960886
 O        -3.041853        -1.425374        -0.131166
 C        -2.344867        -2.483164         0.548544
 C        -3.351379        -3.557803         0.810662
 O        -3.131170        -4.638728         1.314429
 H         2.252388        -0.086120         0.759506
 H         2.119345         0.199765        -0.973315
 H         1.733931         1.479516         0.259753
 H        -2.926657         0.146736         1.104815
 H        -4.056447         0.454909        -1.141123
 H        -3.284933         1.857657        -0.479555
 H        -2.539014         1.073078        -1.839518
 H        -1.415182        -2.904333         0.112011
 H        -2.043169        -2.087539         1.570097
 H        -4.418376        -3.234987         0.620780
