19
Iteration:  4836
 C         1.838160        -0.096723         0.362509
 C         0.361326        -0.166905         0.662469
 C        -0.793638        -0.235497         1.030149
 C        -2.173242        -0.374722         1.178114
 C        -2.790932         1.048810         1.056132
 O        -2.783511        -1.185053         0.083690
 C        -2.735425        -2.565081         0.075166
 C        -3.771812        -3.074215        -1.042631
 O        -3.747715        -4.223598        -1.428123
 H         2.312047        -0.482687        -0.602054
 H         1.907921         1.052328         0.373647
 H         2.361236        -0.613118         1.275593
 H        -2.376260        -0.891417         2.176770
 H        -2.616452         1.515110         1.992449
 H        -2.144391         1.592033         0.271532
 H        -3.830227         0.974633         0.745321
 H        -1.730827        -2.927532        -0.355305
 H        -2.906230        -2.898986         1.100757
 H        -4.566583        -2.419773        -1.463277
