19
Iteration:   474
 C         1.472444         0.332609         0.009705
 C         0.043579         0.454507         0.070171
 C        -1.070075         0.026963         0.252010
 C        -2.512749        -0.091616         0.175933
 C        -3.152867         0.919713        -0.730823
 O        -2.834181        -1.440641        -0.299092
 C        -2.179020        -2.617827         0.418217
 C        -3.135491        -3.805491         0.423674
 O        -3.312575        -4.504668         1.369816
 H         1.846173        -0.497727        -0.610406
 H         1.938258         1.237487        -0.384611
 H         1.885150         0.114768         0.979151
 H        -2.896224         0.163129         1.217117
 H        -3.940830         1.360631        -0.191317
 H        -2.432003         1.744395        -0.868291
 H        -3.528890         0.481574        -1.689252
 H        -1.149531        -2.792550         0.014092
 H        -2.225757        -2.371716         1.436113
 H        -3.604876        -4.161812        -0.514406
