19
Iteration:  3688
 C         1.400709        -0.742220        -0.347346
 C        -0.012339        -0.666060         0.006138
 C        -1.193944        -0.509363         0.144192
 C        -2.367388        -0.084372         0.880191
 C        -2.764934         1.384628         0.811033
 O        -3.678117        -0.898422         0.502002
 C        -3.404226        -2.330173         0.560897
 C        -2.625241        -3.050998        -0.552510
 O        -2.051107        -4.077925        -0.352915
 H         1.759300         0.232743        -0.631157
 H         1.992955        -1.245107         0.456435
 H         1.461694        -1.227679        -1.295803
 H        -2.036797        -0.467103         1.842600
 H        -1.882573         1.951440         1.177539
 H        -2.961036         1.763593        -0.195392
 H        -3.653337         1.364871         1.485221
 H        -3.249440        -2.672056         1.644137
 H        -4.473277        -2.754989         0.546696
 H        -2.531774        -2.541382        -1.542929
