19
Iteration:  1872charge 0 multiplicity 1
 C         1.435210        -0.253155        -0.371121
 C         0.079963        -0.089964         0.046956
 C        -1.149018        -0.066269         0.302945
 C        -2.538387         0.117255         0.619352
 C        -3.110087         0.917494        -0.579407
 O        -3.318125        -1.128403         0.675892
 C        -2.585945        -2.310208         0.972748
 C        -2.939101        -3.422779        -0.054892
 O        -2.584744        -4.566781         0.152161
 H         1.561762        -1.348311        -0.615205
 H         1.540364         0.296024        -1.308563
 H         2.069172         0.033057         0.489401
 H        -2.673896         0.630519         1.583702
 H        -3.893308         1.576223        -0.240070
 H        -2.371611         1.674054        -0.851051
 H        -3.301254         0.298352        -1.409659
 H        -1.511265        -2.191059         0.819788
 H        -2.719732        -2.661444         1.992051
 H        -3.424749        -3.109150        -1.005843
