19
Iteration:  2083
 C         0.990615        -1.214954        -0.550797
 C        -0.196101        -0.547315        -0.024096
 C        -1.281253        -0.110161         0.172034
 C        -2.587692         0.151764         0.688481
 C        -3.126250         1.304560        -0.216001
 O        -3.549833        -1.034464         0.539790
 C        -3.257908        -2.378111         0.983929
 C        -2.270056        -3.073794         0.018490
 O        -1.454207        -3.965397         0.137848
 H         1.030537        -1.193058        -1.682113
 H         1.860013        -0.765121        -0.063717
 H         1.021445        -2.275717        -0.371044
 H        -2.636687         0.421584         1.742325
 H        -4.098403         1.542640         0.144578
 H        -2.475651         2.172492        -0.027991
 H        -3.131872         1.083507        -1.262125
 H        -3.142441        -2.682903         2.013279
 H        -4.203400        -2.769826         0.691330
 H        -2.237449        -2.311607        -0.956536
