19
Iteration:   941charge 0 multiplicity 1
 C         1.370240        -0.055302        -0.349043
 C         0.011925        -0.000814         0.201484
 C        -1.156790        -0.103918         0.362418
 C        -2.534296         0.032521         0.331052
 C        -2.936398         1.161847        -0.632159
 O        -3.272834        -1.220529        -0.078342
 C        -2.954583        -2.256257         0.820481
 C        -2.602814        -3.633292         0.281309
 O        -2.630649        -4.748733         0.867508
 H         1.250304         0.761076        -1.086981
 H         2.290658         0.108147         0.275953
 H         1.446485        -1.001535        -0.830349
 H        -2.963411         0.237541         1.330468
 H        -3.948984         1.655183        -0.249910
 H        -1.988404         1.757323        -0.765059
 H        -3.105987         0.786185        -1.676612
 H        -1.914923        -2.049718         1.208372
 H        -3.592721        -2.176461         1.699955
 H        -2.243188        -3.536679        -0.774929
