19
Iteration:  1226
 C         1.593763        -0.011751         0.216395
 C         0.077022         0.108105        -0.080250
 C        -1.131760         0.027160         0.053496
 C        -2.580089         0.045951         0.289769
 C        -3.341845         1.178640        -0.477393
 O        -3.157600        -1.312582         0.297857
 C        -2.171009        -2.431400         0.266959
 C        -3.148781        -3.640800         0.260965
 O        -2.849417        -4.746097         0.741581
 H         2.193888         0.168931        -0.699844
 H         2.007942         0.687185         1.064564
 H         1.751634        -1.073192         0.553217
 H        -2.679009         0.351317         1.335680
 H        -4.230130         0.753623        -0.954076
 H        -3.670850         2.027815         0.138125
 H        -2.664468         1.649425        -1.237499
 H        -1.381337        -2.333241        -0.559432
 H        -1.485262        -2.556262         1.158282
 H        -4.160950        -3.277618         0.145679
