19
Iteration:  2279charge 0 multiplicity 1
 C         1.110464        -1.029962        -0.844105
 C        -0.075407        -0.391222        -0.051909
 C        -1.245679        -0.287440         0.116707
 C        -2.674983        -0.124880         0.579823
 C        -2.956847         1.340974         0.485299
 O        -3.639857        -1.010380        -0.036525
 C        -3.391069        -2.292171         0.557831
 C        -2.180276        -3.084251         0.056653
 O        -1.669427        -3.967061         0.790487
 H         2.126075        -0.625187        -0.634694
 H         1.213592        -2.041432        -0.521934
 H         1.007334        -0.899148        -1.868236
 H        -2.669305        -0.397864         1.640151
 H        -3.985191         1.594641         0.688608
 H        -2.316211         1.854683         1.284531
 H        -2.771508         1.607975        -0.510166
 H        -3.383226        -2.293031         1.677221
 H        -4.243663        -2.985166         0.289202
 H        -1.898312        -2.938167        -0.981717
