19
Iteration:  2447charge 0 multiplicity 1
 C         1.438042        -0.259216        -0.614120
 C         0.084676        -0.466456        -0.286498
 C        -1.023910        -0.179862         0.032656
 C        -2.386491        -0.013265         0.634461
 C        -3.070184         1.263397         0.271628
 O        -3.356875        -0.970308         0.260824
 C        -3.254276        -2.305976         0.869428
 C        -2.569180        -3.455741         0.009496
 O        -2.488167        -4.577468         0.409242
 H         2.091452        -1.054025        -0.726165
 H         1.449972         0.266561        -1.574684
 H         1.904270         0.354097         0.203349
 H        -2.227043         0.006539         1.723590
 H        -4.090482         1.062508         0.565817
 H        -2.793931         2.150768         0.812154
 H        -3.035503         1.508509        -0.812834
 H        -2.894082        -2.108072         1.909499
 H        -4.314220        -2.552350         1.074154
 H        -2.043186        -3.088176        -0.979821
