19
Iteration:  4676
 C         1.792589        -0.518253         0.281991
 C         0.341023        -0.501528         0.574467
 C        -0.848592        -0.232383         0.789900
 C        -2.364253        -0.201136         1.112868
 C        -3.052727         1.219384         0.952254
 O        -3.159167        -1.074238         0.289866
 C        -2.535594        -2.387572         0.230069
 C        -3.317723        -3.032457        -1.008632
 O        -3.428268        -4.203756        -1.324786
 H         2.272497        -0.772948         1.268320
 H         1.871332        -1.342554        -0.584205
 H         2.274729         0.438552        -0.109047
 H        -2.330751        -0.538642         2.244627
 H        -2.731728         1.953914         1.677634
 H        -2.803110         1.779644        -0.052874
 H        -4.128616         1.108164         1.048286
 H        -1.474439        -2.441330         0.088450
 H        -2.802721        -2.898534         1.245177
 H        -3.801411        -2.200232        -1.588684
