19
Iteration:  3331charge 0 multiplicity 1
 C         1.233023        -0.974238        -0.551387
 C        -0.098842        -0.621861         0.040341
 C        -1.180052        -0.249248         0.447358
 C        -2.519245        -0.026108         0.897099
 C        -2.976509         1.347410         0.350906
 O        -3.478293        -0.958980         0.572577
 C        -3.233842        -2.395315         0.870094
 C        -2.536113        -3.007704        -0.357147
 O        -1.905847        -4.042838        -0.434879
 H         1.695038        -1.861556        -0.017472
 H         0.986644        -1.405777        -1.506275
 H         1.924646        -0.072002        -0.717338
 H        -2.395530         0.117076         1.991262
 H        -2.222130         1.765555        -0.358133
 H        -3.872368         1.141350        -0.340135
 H        -3.315225         2.118597         0.999803
 H        -2.859045        -2.634514         1.899560
 H        -4.266319        -2.741034         0.754636
 H        -2.625920        -2.470982        -1.357496
