19
Iteration:  4239charge 0 multiplicity 1
 C         1.413183        -1.174827        -0.091120
 C         0.028332        -0.573814         0.172667
 C        -0.995062        -0.204641         0.721885
 C        -2.486007        -0.059408         1.054670
 C        -2.995332         1.447568         1.009098
 O        -3.371436        -0.952788         0.268731
 C        -3.091832        -2.347812         0.561427
 C        -2.498960        -2.929964        -0.761299
 O        -2.644506        -4.082994        -1.154626
 H         2.036302        -0.294861        -0.286845
 H         1.656948        -1.594459         0.922497
 H         1.489357        -1.945353        -0.803929
 H        -2.438851        -0.215352         2.236488
 H        -2.484575         2.079876         1.732258
 H        -3.125286         1.737703        -0.019487
 H        -4.082994         1.375309         1.281168
 H        -2.308328        -2.572377         1.379597
 H        -4.106070        -2.787785         0.927232
 H        -1.731164        -2.289769        -1.332056
