19
Iteration:  1142charge 0 multiplicity 1
 C         1.382065        -0.194944        -0.075371
 C         0.017157        -0.118179         0.466662
 C        -1.164123         0.159115         0.154675
 C        -2.552805         0.126549         0.247775
 C        -3.406964         1.028154        -0.636422
 O        -3.034588        -1.241528         0.033765
 C        -2.221638        -2.267749         0.567793
 C        -3.088506        -3.576971         0.484364
 O        -2.646571        -4.672625         0.550413
 H         2.079813         0.392951         0.492775
 H         1.696737        -1.163610         0.120487
 H         1.537599        -0.000761        -1.154174
 H        -2.600683         0.258501         1.376177
 H        -4.139759         1.561419        -0.056154
 H        -2.746983         1.816563        -0.994315
 H        -3.856566         0.302370        -1.446115
 H        -1.331683        -2.421541         0.004765
 H        -2.049174        -1.847133         1.555617
 H        -4.122801        -3.365779         0.174762
