19
Iteration:  3172charge 0 multiplicity 1
 C         1.129748        -1.194243        -0.626608
 C        -0.218907        -0.719262        -0.294099
 C        -1.252392        -0.311531         0.271760
 C        -2.559802         0.056960         0.887126
 C        -3.075825         1.521739         0.718273
 O        -3.463628        -0.919594         0.364580
 C        -3.186144        -2.261782         0.751445
 C        -2.431663        -3.090435        -0.357311
 O        -1.710162        -4.028158        -0.078886
 H         1.728536        -0.414302        -1.146860
 H         1.497351        -1.230345         0.447987
 H         1.140489        -2.070512        -1.244027
 H        -2.511035         0.005311         2.005693
 H        -3.545232         1.944174         1.613891
 H        -2.200126         2.081050         0.320098
 H        -3.749553         1.522935        -0.109954
 H        -2.523935        -2.339885         1.701817
 H        -4.060984        -2.931878         0.873521
 H        -2.687605        -2.616159        -1.331899
