19
Iteration:   877charge 0 multiplicity 1
 C         1.481747        -0.338272        -0.148683
 C         0.026475         0.013499         0.011267
 C        -1.146981         0.368329         0.158745
 C        -2.592036         0.147774         0.334271
 C        -3.470173         1.010487        -0.639656
 O        -2.893248        -1.254231        -0.033125
 C        -2.679241        -2.210370         0.988958
 C        -2.524096        -3.662254         0.356492
 O        -2.915958        -4.747367         0.693868
 H         2.084907         0.317255         0.523710
 H         1.831101        -1.401382        -0.017491
 H         1.762393        -0.054373        -1.137182
 H        -2.761535         0.365033         1.400564
 H        -4.303490         1.532661        -0.056811
 H        -2.768332         1.601174        -1.234188
 H        -3.904571         0.379214        -1.400485
 H        -1.611873        -2.099094         1.362613
 H        -3.462138        -2.266295         1.791896
 H        -1.922559        -3.517280        -0.609604
