19
Iteration:  3200
 C         1.012775        -1.301054        -0.614795
 C        -0.061678        -0.471985        -0.095933
 C        -1.154900        -0.085443         0.296730
 C        -2.532589        -0.010897         0.833565
 C        -3.099818         1.346353         0.656215
 O        -3.506653        -0.915569         0.407088
 C        -3.117046        -2.263424         0.684443
 C        -2.437874        -3.060333        -0.394268
 O        -1.791016        -4.071773        -0.090525
 H         1.240107        -1.097957        -1.680243
 H         1.855536        -1.078886        -0.002201
 H         0.601910        -2.379554        -0.676083
 H        -2.377875        -0.081934         1.924156
 H        -3.222064         1.917682         1.595187
 H        -2.520498         1.912100        -0.134778
 H        -4.138975         1.239565         0.274056
 H        -2.474066        -2.199392         1.552380
 H        -3.973559        -2.867881         1.087656
 H        -2.365378        -2.593438        -1.482993
