19
Iteration:  3425charge 0 multiplicity 1
 C         1.341503        -0.747781        -0.321927
 C        -0.094545        -0.584557        -0.210884
 C        -1.248062        -0.543066         0.163741
 C        -2.447431        -0.081675         0.791242
 C        -2.759764         1.347993         0.462705
 O        -3.610664        -0.966433         0.629912
 C        -3.208843        -2.385466         1.005844
 C        -2.688027        -3.039580        -0.374924
 O        -2.009103        -4.029249        -0.515539
 H         1.690747         0.300530        -0.348008
 H         1.623405        -1.110530         0.721924
 H         1.603216        -1.316275        -1.217495
 H        -2.244743        -0.267926         1.846424
 H        -2.169514         2.108990         1.001408
 H        -2.614179         1.582710        -0.616577
 H        -3.843248         1.599452         0.603639
 H        -2.477994        -2.365523         1.831378
 H        -4.111856        -2.920179         1.314591
 H        -3.125461        -2.476089        -1.256222
