19
Iteration:  2448charge 0 multiplicity 1
 C         1.438367        -0.260911        -0.618106
 C         0.084243        -0.455507        -0.268797
 C        -1.020465        -0.189028         0.028472
 C        -2.384215        -0.009048         0.629145
 C        -3.079256         1.252089         0.268474
 O        -3.359980        -0.968471         0.259524
 C        -3.245985        -2.307112         0.868990
 C        -2.567121        -3.447893         0.008145
 O        -2.494842        -4.580122         0.409021
 H         2.105081        -1.069493        -0.728164
 H         1.460812         0.228798        -1.606210
 H         1.898739         0.367395         0.193665
 H        -2.215993         0.004314         1.715700
 H        -4.086486         1.024768         0.573348
 H        -2.790228         2.159615         0.853689
 H        -3.040784         1.524921        -0.789409
 H        -2.858602        -2.074974         1.914150
 H        -4.322318        -2.519241         1.093002
 H        -2.029835        -3.083301        -0.991916
