19
Iteration:  2291
 C         1.212212        -0.933842        -0.790701
 C        -0.058954        -0.331646        -0.222971
 C        -1.255801        -0.324706         0.173683
 C        -2.690955        -0.148811         0.676525
 C        -2.919749         1.369165         0.443239
 O        -3.645769        -1.064517        -0.003052
 C        -3.362683        -2.346312         0.531548
 C        -2.221481        -3.164357         0.037564
 O        -1.784371        -3.937584         0.783425
 H         2.070995        -0.282086        -0.730641
 H         1.327461        -1.929358        -0.408385
 H         0.905494        -1.185170        -1.767926
 H        -2.767223        -0.391090         1.744429
 H        -3.930317         1.736732         0.462190
 H        -2.290624         1.865809         1.239515
 H        -2.400900         1.752623        -0.358216
 H        -3.108596        -2.184830         1.625815
 H        -4.317104        -2.953805         0.443772
 H        -1.878078        -3.022356        -0.994208
