19
Iteration:  1371charge 0 multiplicity 1
 C         1.622440         0.381651        -0.381629
 C         0.312240         0.296880         0.172901
 C        -0.849351         0.168716         0.468900
 C        -2.365430        -0.042449         0.507347
 C        -3.261343         0.765985        -0.404054
 O        -2.813102        -1.326884        -0.003839
 C        -2.703819        -2.463399         0.769297
 C        -3.273274        -3.679815         0.161015
 O        -3.206331        -4.812593         0.526637
 H         2.522301         0.345402         0.317920
 H         1.848540        -0.360555        -1.168996
 H         1.686275         1.413188        -0.907536
 H        -2.744969         0.101437         1.563334
 H        -3.070262         1.841424        -0.658898
 H        -3.209734         0.202103        -1.349345
 H        -4.200938         0.651602         0.105841
 H        -1.848033        -2.658968         1.410065
 H        -3.471956        -2.286223         1.574007
 H        -3.827184        -3.376146        -0.842801
