19
Iteration:  3638charge 0 multiplicity 1
 C         1.301553        -0.964695        -0.550112
 C         0.033530        -0.482811        -0.122033
 C        -0.949573        -0.169325         0.586297
 C        -2.496175        -0.090798         0.991594
 C        -2.990016         1.313751         0.789838
 O        -3.447225        -0.929191         0.265754
 C        -3.379476        -2.306793         0.577229
 C        -2.517930        -3.022767        -0.424878
 O        -2.211131        -4.194196        -0.373091
 H         2.091387        -0.502602         0.165154
 H         1.239344        -2.073121        -0.555118
 H         1.709669        -0.499613        -1.497555
 H        -2.493381        -0.473264         2.053177
 H        -2.767480         1.912901         1.668894
 H        -2.608333         1.710983        -0.113786
 H        -4.082074         1.084480         0.616364
 H        -2.870207        -2.435737         1.546887
 H        -4.320942        -2.741990         0.925104
 H        -2.231083        -2.522026        -1.366566
