19
Iteration:   989
 C         1.501534         0.084009        -0.268926
 C         0.087071        -0.117301        -0.069846
 C        -1.069888        -0.089387         0.236310
 C        -2.492334        -0.018865         0.365096
 C        -2.961663         1.104768        -0.648625
 O        -3.268917        -1.248598         0.137874
 C        -3.091817        -2.340047         0.915274
 C        -2.843970        -3.652854         0.168285
 O        -2.540909        -4.600038         0.814467
 H         1.917830        -0.073737        -1.254883
 H         1.673213         1.116302        -0.012910
 H         2.013927        -0.417549         0.594008
 H        -2.694197         0.225105         1.400319
 H        -3.924491         0.832063        -1.023882
 H        -2.866849         2.060814        -0.151646
 H        -2.220265         1.244051        -1.451927
 H        -2.427671        -2.105783         1.707410
 H        -4.027465        -2.568627         1.462248
 H        -2.886380        -3.607400        -0.938963
