19
Iteration:  2258
 C         1.047052        -1.110674        -0.804951
 C        -0.112907        -0.710311        -0.093223
 C        -1.285373        -0.295493         0.131434
 C        -2.552967        -0.011918         0.606206
 C        -3.183250         1.383719         0.480679
 O        -3.459828        -0.963572        -0.017833
 C        -3.486208        -2.292475         0.484580
 C        -2.161407        -3.031389         0.150360
 O        -1.525356        -3.916905         0.734843
 H         2.030509        -0.941031        -0.345885
 H         0.951778        -2.170851        -0.978056
 H         0.965371        -0.522487        -1.673505
 H        -2.513310        -0.151401         1.713202
 H        -4.064697         1.437077         1.082969
 H        -2.456944         2.119931         0.913343
 H        -3.414299         1.615536        -0.502937
 H        -3.702308        -2.197501         1.591139
 H        -4.246583        -2.970418         0.019600
 H        -1.786293        -2.502387        -0.823218
