19
Iteration:  3782charge 0 multiplicity 1
 C         1.275666        -0.791349        -0.516465
 C         0.050840        -0.707720         0.130062
 C        -1.109941        -0.465142         0.413819
 C        -2.459620        -0.201770         1.010085
 C        -2.706169         1.272910         0.724925
 O        -3.614179        -0.962637         0.545164
 C        -3.526079        -2.349770         0.423528
 C        -2.613558        -2.894349        -0.612364
 O        -2.011547        -3.911170        -0.354246
 H         1.316030        -1.535191        -1.344626
 H         1.655019         0.199623        -0.767938
 H         2.213446        -1.129015         0.058223
 H        -2.547534        -0.356583         2.086351
 H        -1.733810         1.810962         0.702342
 H        -3.098632         1.527963        -0.306642
 H        -3.285495         1.696852         1.514775
 H        -3.343862        -2.883770         1.382220
 H        -4.544504        -2.652857         0.153757
 H        -2.400017        -2.249351        -1.501097
