19
Iteration:   739
 C         1.609218         0.053567        -0.168148
 C         0.125148         0.173091         0.059054
 C        -1.103890         0.027484         0.150877
 C        -2.553695        -0.017598         0.290273
 C        -3.247428         0.899333        -0.769626
 O        -3.210879        -1.287675         0.221722
 C        -2.434354        -2.337820         0.912298
 C        -2.801421        -3.635657         0.214910
 O        -3.033779        -4.656842         0.786530
 H         1.749250        -0.713354        -0.901129
 H         2.138889         0.921534        -0.517453
 H         2.097948        -0.286729         0.766693
 H        -2.782456         0.378027         1.285511
 H        -4.337644         0.720475        -0.770533
 H        -3.087137         1.943260        -0.413846
 H        -2.901896         0.980788        -1.751665
 H        -1.349507        -2.144097         0.766892
 H        -2.641933        -2.308700         1.967457
 H        -2.962359        -3.552810        -0.895133
