19
Iteration:  4608charge 0 multiplicity 1
 C         1.476564        -0.698054         0.004455
 C         0.207658        -0.303843         0.693124
 C        -0.904974        -0.209811         1.174677
 C        -2.378117        -0.206395         1.127479
 C        -2.989078         1.263608         0.858009
 O        -3.026936        -1.064631         0.204365
 C        -2.490917        -2.396082         0.214111
 C        -3.032821        -3.025923        -1.058728
 O        -3.464978        -4.170587        -1.198871
 H         1.201479        -1.727034        -0.281967
 H         1.590524         0.055980        -0.808151
 H         2.369021        -0.792481         0.675308
 H        -2.731435        -0.541378         2.187115
 H        -2.474688         1.934597         1.573179
 H        -2.733360         1.382314        -0.185590
 H        -4.078774         1.121440         1.057910
 H        -1.426663        -2.436270         0.192983
 H        -2.738132        -2.969009         1.152667
 H        -2.642133        -2.543944        -1.923069
