19
Iteration:   554charge 0 multiplicity 1
 C         1.639005         0.687409         0.042895
 C         0.254200         0.223825        -0.091018
 C        -0.943113        -0.042935        -0.143884
 C        -2.391146        -0.186571         0.172828
 C        -3.146214         0.749855        -0.792668
 O        -2.913429        -1.487760         0.054817
 C        -2.597581        -2.442725         1.013754
 C        -3.371393        -3.595466         0.475842
 O        -3.170264        -4.703576         0.867163
 H         2.045806         0.270446         0.939813
 H         2.280059         0.305078        -0.742858
 H         1.717595         1.814443        -0.050809
 H        -2.603165         0.170306         1.220873
 H        -4.230591         0.691550        -0.516045
 H        -2.705490         1.751296        -0.749248
 H        -2.948703         0.389591        -1.767166
 H        -1.550816        -2.755962         0.880757
 H        -2.687765        -2.274966         2.090495
 H        -4.163555        -3.258053        -0.257955
