19
Iteration:  2619charge 0 multiplicity 1
 C         1.471962        -0.451776        -0.525306
 C         0.011343        -0.345444        -0.206135
 C        -1.118044         0.035979         0.233182
 C        -2.539998         0.107092         0.770310
 C        -3.257558         1.168236        -0.131943
 O        -3.251574        -1.199497         0.717563
 C        -2.520112        -2.377128         1.067644
 C        -2.455722        -3.349893        -0.153091
 O        -3.024586        -4.419610        -0.044136
 H         1.691651         0.285165        -1.290791
 H         2.218493        -0.160275         0.166119
 H         1.733100        -1.380013        -1.053188
 H        -2.541620         0.366957         1.828646
 H        -4.309671         1.144617        -0.316155
 H        -2.985358         2.175599         0.151634
 H        -2.806666         1.054203        -1.128551
 H        -1.443025        -2.288600         1.401088
 H        -3.108715        -2.906218         1.819221
 H        -2.004661        -3.045892        -1.076122
