19
Iteration:   628charge 0 multiplicity 1
 C         1.656002         0.604823        -0.254408
 C         0.258305         0.265866         0.108848
 C        -0.945604         0.005254         0.089464
 C        -2.392262        -0.242371         0.269670
 C        -2.994468         0.721508        -0.675474
 O        -2.946125        -1.521475        -0.156063
 C        -2.880467        -2.305847         0.942327
 C        -3.516288        -3.657597         0.632800
 O        -2.869828        -4.655213         0.724786
 H         1.852259         1.659486        -0.010123
 H         2.385890         0.056313         0.348459
 H         1.809145         0.418334        -1.276568
 H        -2.699210        -0.114216         1.328078
 H        -4.026857         0.428945        -0.943441
 H        -3.032313         1.620184        -0.079946
 H        -2.326971         0.794339        -1.534806
 H        -1.874446        -2.564894         1.488892
 H        -3.505048        -1.828053         1.736992
 H        -4.598238        -3.578323         0.408535
