19
Iteration:  2123
 C         1.010110        -1.361963        -0.567075
 C        -0.227752        -0.773113        -0.279464
 C        -1.300796        -0.432907         0.281212
 C        -2.557609         0.091028         0.677813
 C        -3.293518         1.303052         0.136681
 O        -3.629639        -0.930023         0.370031
 C        -3.167692        -2.203569         0.690522
 C        -2.174427        -2.958520        -0.161936
 O        -1.410744        -3.679356         0.474758
 H         1.001817        -2.004151        -1.488977
 H         1.721247        -0.576935        -0.798490
 H         1.374960        -1.914152         0.320274
 H        -2.441212         0.195574         1.796449
 H        -4.341655         0.921980        -0.007404
 H        -3.268782         2.112999         0.807197
 H        -2.962549         1.693199        -0.905771
 H        -2.638163        -2.049031         1.669230
 H        -4.027972        -2.960467         0.888308
 H        -2.056802        -2.818817        -1.199303
