19
Iteration:  4581charge 0 multiplicity 1
 C         1.484860        -0.632792         0.002425
 C         0.156089        -0.505502         0.689431
 C        -1.002040        -0.270476         1.006695
 C        -2.420007        -0.107981         1.240225
 C        -2.992358         1.334049         0.924420
 O        -2.980834        -1.015378         0.127995
 C        -2.523998        -2.435314         0.250687
 C        -2.891303        -3.094705        -1.053574
 O        -3.451599        -4.170163        -1.148541
 H         1.071808        -1.122378        -0.945193
 H         1.842803         0.358231        -0.264998
 H         2.166818        -1.329101         0.486927
 H        -2.694515        -0.478609         2.286767
 H        -2.282187         2.103175         1.443666
 H        -2.750037         1.547419        -0.168200
 H        -4.052106         1.240208         1.169554
 H        -1.402006        -2.467678         0.433731
 H        -3.095140        -2.977380         1.049049
 H        -2.495371        -2.555018        -1.999813
