19
Iteration:  4103
 C         1.213622        -1.184272        -0.371589
 C        -0.033325        -0.869904         0.309817
 C        -1.138379        -0.564224         0.791586
 C        -2.514182         0.020452         1.117720
 C        -2.777936         1.450660         0.667907
 O        -3.583361        -0.982791         0.620767
 C        -3.277576        -2.334928         0.511613
 C        -2.645454        -2.763258        -0.858194
 O        -1.946485        -3.783376        -0.925013
 H         1.470112        -2.188966        -0.269417
 H         1.324604        -0.978773        -1.361536
 H         2.084639        -0.748004         0.110026
 H        -2.555420         0.089734         2.264277
 H        -1.854982         1.963986         0.779315
 H        -3.159015         1.684010        -0.330034
 H        -3.614053         1.829449         1.211088
 H        -2.627633        -2.688767         1.347327
 H        -4.287043        -2.860788         0.640922
 H        -3.067194        -2.091532        -1.647980
