19
Iteration:  1437
 C         1.635280         0.543101        -0.225902
 C         0.169967         0.321075        -0.244368
 C        -0.947478         0.185585         0.297525
 C        -2.333217        -0.069129         0.526500
 C        -3.174031         0.912583        -0.296008
 O        -2.555796        -1.466497        -0.009404
 C        -2.661066        -2.489591         0.954769
 C        -3.286562        -3.726525         0.192705
 O        -3.501557        -4.928552         0.490822
 H         1.874148         1.648908        -0.017320
 H         2.165971        -0.029145         0.538606
 H         2.167881         0.330402        -1.217771
 H        -2.532061        -0.094268         1.631487
 H        -3.836277         1.574241         0.251148
 H        -2.483212         1.662731        -0.691265
 H        -3.567085         0.329484        -1.055162
 H        -1.729708        -2.686783         1.466700
 H        -3.424205        -2.254549         1.732412
 H        -3.413244        -3.524382        -0.883162
