19
Iteration:  3511charge 0 multiplicity 1
 C         1.233893        -0.894509        -0.593687
 C        -0.022397        -0.456483         0.006005
 C        -1.022282        -0.109827         0.600995
 C        -2.444069        -0.043508         0.936486
 C        -2.961311         1.379730         0.551863
 O        -3.458889        -0.971915         0.407609
 C        -3.311775        -2.424861         0.692298
 C        -2.467488        -3.073327        -0.309695
 O        -2.221941        -4.253742        -0.485277
 H         1.038394        -1.438807        -1.505093
 H         1.907306        -0.069699        -0.955879
 H         1.870985        -1.616444        -0.052653
 H        -2.473556        -0.059989         2.068235
 H        -2.377390         2.066217         1.174504
 H        -2.964433         1.522510        -0.559625
 H        -3.951508         1.404163         1.015572
 H        -2.736006        -2.548858         1.596264
 H        -4.303736        -2.866369         0.865509
 H        -2.018099        -2.508738        -1.108158
