19
Iteration:   582
 C         1.676082         0.721618        -0.016457
 C         0.279497         0.275528        -0.202112
 C        -0.908811        -0.012513        -0.112459
 C        -2.329547        -0.104436         0.173789
 C        -3.042235         0.896956        -0.800925
 O        -2.937282        -1.391010         0.031151
 C        -2.809337        -2.399997         1.109579
 C        -3.405796        -3.769473         0.642797
 O        -3.114949        -4.992979         0.739495
 H         1.841910         0.842488         1.105413
 H         2.364825        -0.132075        -0.316767
 H         1.934008         1.584472        -0.586160
 H        -2.599544         0.237703         1.167657
 H        -4.026569         0.503726        -0.967581
 H        -3.129541         1.916292        -0.401044
 H        -2.477778         0.783515        -1.798073
 H        -1.702835        -2.457137         1.372795
 H        -3.313968        -2.216579         2.092489
 H        -4.428345        -3.454139         0.393529
