19
Iteration:  2065
 C         1.050056        -1.118323        -0.553780
 C        -0.130982        -0.541469        -0.001855
 C        -1.284523        -0.216545         0.359432
 C        -2.653884         0.092966         0.618477
 C        -3.174431         1.233221        -0.264137
 O        -3.539247        -1.017333         0.509895
 C        -3.189699        -2.306818         1.037157
 C        -2.205432        -2.979161        -0.011000
 O        -1.599887        -4.043402         0.070913
 H         1.193780        -0.674248        -1.521786
 H         1.927417        -0.997044         0.157050
 H         0.771543        -2.217192        -0.719596
 H        -2.613078         0.509550         1.664318
 H        -3.963432         1.911399         0.186224
 H        -2.291876         1.968948        -0.510731
 H        -3.548219         0.797179        -1.193111
 H        -2.589257        -2.165136         1.985962
 H        -4.147097        -2.872373         1.266410
 H        -2.274558        -2.452725        -0.887373
