19
Iteration:  1685
 C         1.529741         0.283858        -0.158099
 C         0.135843         0.128145        -0.045422
 C        -1.032892         0.021606         0.122494
 C        -2.461048        -0.163632         0.452930
 C        -3.176408         1.134427         0.052144
 O        -2.849373        -1.349664        -0.357323
 C        -2.318927        -2.523359         0.353355
 C        -3.282382        -3.625442         0.283591
 O        -3.228488        -4.691880         0.939607
 H         1.941482         0.675924         0.748744
 H         2.189948        -0.568411        -0.339782
 H         1.831767         0.960201        -0.982890
 H        -2.734230        -0.475102         1.482642
 H        -3.433180         1.513388         1.029882
 H        -2.545750         1.953911        -0.386267
 H        -4.080108         0.952574        -0.549769
 H        -1.318121        -2.729618        -0.137500
 H        -2.101809        -2.363063         1.405046
 H        -4.095422        -3.551892        -0.396876
