19
Iteration:  4330charge 0 multiplicity 1
 C         1.540213        -0.621383        -0.019115
 C         0.142064        -0.479341         0.362191
 C        -0.951465        -0.487266         0.872043
 C        -2.372211        -0.187771         1.193800
 C        -2.745443         1.297856         0.823248
 O        -3.221968        -0.919709         0.290380
 C        -3.398684        -2.322496         0.441429
 C        -2.869116        -3.039080        -0.891472
 O        -2.759534        -4.218229        -1.138041
 H         1.612388        -1.213421        -0.954073
 H         1.959117         0.356077        -0.279378
 H         2.190096        -1.091613         0.760590
 H        -2.756026        -0.465414         2.240207
 H        -2.293120         1.983380         1.513421
 H        -2.411069         1.424656        -0.227990
 H        -3.810627         1.457975         0.844586
 H        -2.792446        -2.540137         1.382165
 H        -4.443820        -2.604996         0.448227
 H        -2.550704        -2.232743        -1.665641
