19
Iteration:  2208charge 0 multiplicity 1
 C         0.880267        -1.397197        -0.680363
 C        -0.214556        -0.565158        -0.294494
 C        -1.277574        -0.262564         0.214652
 C        -2.577068        -0.023981         0.724211
 C        -3.223815         1.343286         0.411405
 O        -3.506161        -0.912637         0.104504
 C        -3.284100        -2.276995         0.464439
 C        -2.025997        -3.051175        -0.118219
 O        -1.453661        -3.697453         0.769887
 H         0.879290        -2.193022         0.057148
 H         0.660806        -1.987329        -1.617491
 H         1.893443        -0.845717        -0.608524
 H        -2.618991        -0.182976         1.809616
 H        -4.019116         1.530916         1.214700
 H        -2.610412         2.223364         0.386921
 H        -3.838544         1.129068        -0.558240
 H        -3.217516        -2.328227         1.544085
 H        -4.108172        -2.920249         0.203379
 H        -1.805721        -3.032245        -1.151237
