19
Iteration:  1916charge 0 multiplicity 1
 C         1.443739        -0.392260        -0.266171
 C         0.013454        -0.524107        -0.078183
 C        -1.166870        -0.142322         0.204499
 C        -2.583094         0.171555         0.425318
 C        -3.317052         1.116521        -0.546960
 O        -3.267763        -1.044509         0.785861
 C        -2.583004        -2.281765         1.164218
 C        -2.780246        -3.303877         0.007120
 O        -2.457729        -4.508176        -0.024817
 H         1.965553        -1.056032         0.530581
 H         1.679728        -0.700763        -1.299776
 H         1.724338         0.666728        -0.027293
 H        -2.471478         0.614366         1.435391
 H        -4.347772         0.830145        -0.289855
 H        -3.158402         2.194693        -0.407406
 H        -3.199785         0.880917        -1.568278
 H        -1.506696        -2.182951         1.242255
 H        -2.941387        -2.605966         2.131902
 H        -3.309585        -2.742118        -0.910684
