19
Iteration:    97charge 0 multiplicity 1
 C         1.734682         0.296677        -0.139589
 C         0.249144         0.527565        -0.236448
 C        -0.890025         0.048859        -0.032391
 C        -2.333399        -0.153077         0.056980
 C        -3.141603         0.517881        -1.064041
 O        -2.850832        -1.467005        -0.073576
 C        -2.771178        -2.242087         1.132348
 C        -3.574447        -3.558061         1.081803
 O        -3.042282        -4.627497         0.928780
 H         2.335243         1.061052        -0.613382
 H         2.118345         0.024913         0.888394
 H         1.962387        -0.714254        -0.686052
 H        -2.770066         0.207540         1.083742
 H        -4.021175         1.024976        -0.681767
 H        -2.466989         1.217676        -1.609194
 H        -3.521839        -0.187841        -1.857169
 H        -1.711764        -2.603009         1.271361
 H        -3.040285        -1.488287         1.959280
 H        -4.722941        -3.504806         0.911809
