19
Iteration:  1048charge 0 multiplicity 1
 C         1.690045         0.028004        -0.114872
 C         0.180188        -0.042018         0.087101
 C        -1.031334        -0.051641        -0.061455
 C        -2.434105         0.002556         0.190579
 C        -3.253669         1.050231        -0.564309
 O        -3.158909        -1.363367         0.088846
 C        -3.106764        -2.283524         1.117283
 C        -3.152373        -3.639003         0.337728
 O        -2.401276        -4.528345         0.567855
 H         2.153973        -0.949248         0.149073
 H         1.831807         0.367896        -1.168009
 H         2.241830         0.651949         0.608006
 H        -2.537331         0.301723         1.255037
 H        -4.323735         0.892995        -0.402896
 H        -3.106889         2.025790        -0.112878
 H        -3.054904         0.930726        -1.599409
 H        -2.126403        -2.226701         1.695569
 H        -4.018197        -2.279413         1.736386
 H        -3.641652        -3.450187        -0.647452
