19
Iteration:  2661charge 0 multiplicity 1
 C         1.492507        -0.302028        -0.509985
 C         0.025422        -0.217863        -0.217720
 C        -1.066361        -0.340432         0.252120
 C        -2.436229         0.101738         0.685091
 C        -3.246597         1.078563        -0.166477
 O        -3.183538        -1.113339         0.805302
 C        -2.645534        -2.363028         1.089781
 C        -2.629521        -3.263421        -0.119193
 O        -2.953305        -4.456958        -0.139955
 H         1.613796        -0.489189        -1.659469
 H         1.950537         0.673627        -0.217075
 H         1.932727        -1.167589         0.016866
 H        -2.345389         0.635538         1.673371
 H        -4.249137         1.027997         0.321178
 H        -2.884374         2.095093        -0.089582
 H        -3.325335         0.789240        -1.267591
 H        -1.622224        -2.344382         1.644233
 H        -3.265519        -2.924560         1.836135
 H        -2.403025        -2.710398        -1.138792
