19
Iteration:  1039
 C         1.656216         0.086673        -0.118986
 C         0.269211        -0.113414         0.067242
 C        -0.976750        -0.150380         0.029953
 C        -2.487434        -0.032357         0.141959
 C        -3.299043         1.015273        -0.578863
 O        -3.144456        -1.327863         0.074748
 C        -3.146335        -2.292022         1.150313
 C        -3.053288        -3.498875         0.318657
 O        -2.436110        -4.546278         0.572549
 H         2.018830        -0.955615        -0.291765
 H         1.902308         0.539181        -1.136050
 H         2.163066         0.633490         0.641616
 H        -2.648348         0.261645         1.229309
 H        -4.354814         0.583988        -0.403307
 H        -3.154747         1.973130        -0.001857
 H        -3.051758         1.299055        -1.598562
 H        -2.290309        -2.189017         1.898904
 H        -4.090512        -2.191542         1.741044
 H        -3.592861        -3.375399        -0.633737
