19
Iteration:  4215charge 0 multiplicity 1
 C         1.280234        -1.209428        -0.057411
 C         0.017891        -0.606499         0.289914
 C        -1.069603        -0.073456         0.483211
 C        -2.392056        -0.030072         1.086619
 C        -3.010385         1.327399         0.938245
 O        -3.268968        -0.951314         0.434380
 C        -3.096916        -2.358222         0.509898
 C        -2.487785        -2.915488        -0.711801
 O        -2.585781        -4.037529        -1.158931
 H         2.098243        -0.513827         0.100590
 H         1.346739        -2.143313         0.472415
 H         1.177372        -1.488856        -1.099506
 H        -2.162958        -0.045133         2.234883
 H        -2.730903         1.881748         1.902809
 H        -2.748351         1.781635        -0.019764
 H        -4.105191         1.296957         0.871836
 H        -2.703069        -2.830130         1.481922
 H        -4.244589        -2.781074         0.473441
 H        -1.996472        -2.137676        -1.409712
