19
Iteration:   421
 C         1.492534         0.261681         0.045015
 C         0.086463        -0.042911         0.222904
 C        -1.136992         0.070484         0.199661
 C        -2.574318        -0.127213         0.135136
 C        -3.448947         0.960409        -0.698581
 O        -2.734009        -1.457662        -0.326856
 C        -2.097510        -2.571387         0.300101
 C        -3.061817        -3.702741         0.383954
 O        -3.207551        -4.208289         1.447621
 H         1.683429         0.588712        -0.997990
 H         1.909812         1.040995         0.723077
 H         2.134114        -0.706942         0.077567
 H        -2.807624        -0.013034         1.178998
 H        -4.339244         0.502143        -1.008175
 H        -3.710488         1.884728        -0.164208
 H        -2.951676         1.168143        -1.684234
 H        -1.153630        -2.899355        -0.108080
 H        -1.948357        -2.300453         1.375948
 H        -3.722418        -4.005763        -0.433239
