19
Iteration:  1615charge 0 multiplicity 1
 C         1.636076         0.531316        -0.227018
 C         0.339461         0.250566         0.272619
 C        -0.913605         0.157964         0.164946
 C        -2.320855        -0.102154         0.447653
 C        -3.347333         0.916565        -0.147648
 O        -2.831307        -1.455555         0.053558
 C        -2.241240        -2.778252         0.026866
 C        -3.397268        -3.740726         0.117416
 O        -3.523596        -4.549632         1.030113
 H         2.472569        -0.194960        -0.009217
 H         1.729776         0.683286        -1.366628
 H         1.995746         1.503414         0.153734
 H        -2.429227         0.025111         1.550230
 H        -2.657801         1.630169        -0.593044
 H        -3.950130         0.520265        -0.935588
 H        -4.044677         1.263938         0.619282
 H        -1.665621        -2.989188        -0.937407
 H        -1.548381        -2.762116         0.886110
 H        -4.155476        -3.646916        -0.613133
