19
Iteration:  2963charge 0 multiplicity 1
 C         1.175997        -1.066725        -0.761215
 C        -0.126461        -0.494810        -0.324608
 C        -1.199768        -0.177082         0.272523
 C        -2.446521         0.028584         0.980530
 C        -3.144538         1.357186         0.537197
 O        -3.439871        -0.841451         0.480729
 C        -3.314164        -2.282334         0.677505
 C        -2.261121        -3.105559        -0.162471
 O        -1.984813        -4.286606        -0.036129
 H         1.248935        -1.823092        -1.567584
 H         1.947269        -0.322470        -1.189797
 H         1.758284        -1.439069         0.142718
 H        -2.335730        -0.061005         2.096217
 H        -4.142201         1.410638         0.946902
 H        -2.624620         2.282787         0.658504
 H        -3.236631         1.244811        -0.556184
 H        -2.852492        -2.403910         1.701311
 H        -4.328659        -2.680789         0.759636
 H        -1.681266        -2.467593        -0.821320
