19
Iteration:  1668
 C         1.581769         0.370290        -0.150743
 C         0.090262         0.160054        -0.100376
 C        -1.017427        -0.044270         0.233917
 C        -2.417364        -0.231809         0.449951
 C        -3.240969         1.011719         0.000505
 O        -2.831172        -1.395478        -0.188772
 C        -2.241261        -2.590787         0.264897
 C        -3.370885        -3.542859         0.198809
 O        -3.243997        -4.535371         0.947339
 H         2.049785         0.394133         0.903598
 H         2.020567        -0.533911        -0.642543
 H         1.924579         1.267293        -0.690608
 H        -2.540766        -0.375493         1.547263
 H        -3.199002         1.879485         0.706710
 H        -2.699283         1.471827        -0.878833
 H        -4.195293         0.635509        -0.379027
 H        -1.385938        -2.902953        -0.391112
 H        -1.926508        -2.427050         1.338510
 H        -4.319506        -3.329197        -0.484308
