19
Iteration:  2046
 C         1.177156        -1.052050        -0.573516
 C        -0.112778        -0.595385         0.007293
 C        -1.265753        -0.328599         0.456624
 C        -2.739929         0.124965         0.689417
 C        -3.215861         1.140752        -0.312867
 O        -3.609260        -1.036467         0.480457
 C        -2.878674        -2.167327         1.020331
 C        -2.266149        -2.936693        -0.095926
 O        -1.801182        -4.039769         0.113168
 H         1.648285        -0.274633        -1.149678
 H         1.913377        -1.238639         0.211195
 H         0.988742        -2.040553        -1.019366
 H        -2.867284         0.432878         1.750734
 H        -3.912559         1.851714         0.201164
 H        -2.488045         1.743187        -0.815468
 H        -3.866999         0.549233        -1.008837
 H        -2.277548        -1.756115         1.837671
 H        -3.554050        -3.027332         1.357416
 H        -2.230942        -2.445000        -1.225046
