19
Iteration:  3768
 C         1.439623        -0.755331        -0.498076
 C         0.006228        -0.675194         0.078003
 C        -1.175344        -0.557469         0.433510
 C        -2.448043        -0.261214         1.048593
 C        -2.658084         1.304255         0.707970
 O        -3.677392        -0.912086         0.490342
 C        -3.616008        -2.364752         0.476539
 C        -2.568732        -2.870423        -0.539481
 O        -1.988069        -3.913125        -0.391491
 H         1.342641        -0.968069        -1.585789
 H         1.754793         0.262558        -0.625951
 H         1.912536        -1.405559         0.138957
 H        -2.175140        -0.541263         2.041853
 H        -1.692946         1.718261         0.413900
 H        -3.329054         1.130256        -0.152063
 H        -3.101164         1.987563         1.475514
 H        -3.335267        -2.796787         1.510385
 H        -4.617257        -2.777265         0.198706
 H        -2.714064        -2.440794        -1.567156
