19
Iteration:  3879charge 0 multiplicity 1
 C         0.987937        -1.368553        -0.532329
 C        -0.118244        -0.628312         0.075442
 C        -1.177653        -0.243304         0.553189
 C        -2.522309         0.029861         1.041933
 C        -3.075913         1.491044         1.055410
 O        -3.451269        -0.788094         0.353415
 C        -3.122529        -2.139417         0.490297
 C        -2.289674        -3.018454        -0.642772
 O        -1.953443        -4.187907        -0.608621
 H         1.710478        -1.872281         0.159719
 H         0.632736        -2.140090        -1.295162
 H         1.628478        -0.776935        -1.190776
 H        -2.424751        -0.257640         2.172761
 H        -2.875596         2.056935         2.018325
 H        -2.492957         2.110011         0.283829
 H        -4.152724         1.545535         1.021616
 H        -2.571662        -2.510655         1.454235
 H        -4.046203        -2.817244         0.371418
 H        -1.950377        -2.385667        -1.508825
