19
Iteration:  2021charge 0 multiplicity 1
 C         1.155278        -0.868461        -0.408434
 C        -0.182866        -0.686084        -0.007924
 C        -1.265671        -0.184857         0.295743
 C        -2.613038         0.127916         0.627073
 C        -3.275128         1.107034        -0.404937
 O        -3.458057        -1.024348         0.664696
 C        -2.807870        -2.201596         1.010431
 C        -2.348717        -3.035435        -0.119952
 O        -1.978883        -4.154685         0.062408
 H         1.607959         0.092501        -0.384686
 H         1.754077        -1.509082         0.316056
 H         1.189824        -1.382542        -1.412581
 H        -2.600568         0.523541         1.682168
 H        -3.846806         1.913235         0.128494
 H        -2.450978         1.707672        -0.997076
 H        -3.942976         0.568011        -1.062401
 H        -1.920725        -1.941911         1.656786
 H        -3.478370        -2.920401         1.586109
 H        -2.108587        -2.492706        -1.116319
