19
Iteration:  1245charge 0 multiplicity 1
 C         1.606357         0.109536         0.152373
 C         0.216480        -0.026600         0.111890
 C        -1.012818        -0.033462        -0.018290
 C        -2.489512         0.032827         0.268817
 C        -3.409223         1.156405        -0.438261
 O        -3.201018        -1.267591         0.217873
 C        -2.386941        -2.378191         0.316031
 C        -3.181720        -3.656082         0.296323
 O        -2.819600        -4.752966         0.746831
 H         2.087937        -0.032849        -0.847084
 H         1.896873         1.171120         0.437196
 H         2.105490        -0.553679         0.857800
 H        -2.550194         0.261806         1.371094
 H        -4.215502         0.620818        -1.015215
 H        -3.784432         1.731310         0.440299
 H        -2.860232         1.851108        -1.029512
 H        -1.728869        -2.408097        -0.561312
 H        -1.612671        -2.366829         1.110165
 H        -3.981093        -3.630177        -0.526411
