19
Iteration:  3254
 C         0.993779        -1.259731        -0.633032
 C        -0.265149        -0.748302        -0.034900
 C        -1.071524         0.004147         0.485746
 C        -2.504275         0.086501         0.993320
 C        -3.196230         1.410797         0.514423
 O        -3.403092        -0.896021         0.365165
 C        -3.155216        -2.263430         0.752308
 C        -2.216461        -3.012268        -0.355314
 O        -1.880312        -4.194282        -0.306112
 H         0.681866        -1.877407        -1.529546
 H         1.635509        -0.481854        -1.035305
 H         1.560690        -1.901024         0.134272
 H        -2.440450         0.055920         2.079096
 H        -2.593152         2.322642         0.366165
 H        -3.693660         1.200914        -0.491299
 H        -3.996541         1.678085         1.201276
 H        -2.647768        -2.119393         1.692587
 H        -4.057168        -2.802312         1.009815
 H        -1.765300        -2.439482        -1.131597
