19
Iteration:  3736
 C         1.332633        -0.664680        -0.366789
 C        -0.082308        -0.651769        -0.100711
 C        -1.172568        -0.771499         0.399526
 C        -2.389721        -0.258079         0.877738
 C        -2.671882         1.279117         0.744198
 O        -3.563216        -0.902619         0.411086
 C        -3.580589        -2.335314         0.598729
 C        -2.613451        -2.848362        -0.455293
 O        -1.980816        -3.907224        -0.414363
 H         1.688836        -0.324716        -1.411256
 H         1.813020        -0.092945         0.440441
 H         1.794015        -1.670205        -0.296846
 H        -2.302301        -0.611662         1.945914
 H        -1.815737         1.801507         0.315469
 H        -3.438900         1.417392        -0.038698
 H        -3.017795         1.659539         1.739408
 H        -3.374290        -2.485257         1.661392
 H        -4.596996        -2.613033         0.648440
 H        -2.755155        -2.316063        -1.419681
