19
Iteration:  1782
 C         1.572495         0.050088        -0.228589
 C         0.100463        -0.022059        -0.180482
 C        -1.098672        -0.049451         0.227874
 C        -2.530465         0.002309         0.441041
 C        -3.205478         1.235220        -0.368576
 O        -3.054791        -1.271682         0.211385
 C        -2.401582        -2.385946         0.942834
 C        -3.078226        -3.587767         0.232155
 O        -3.004295        -4.825462         0.379962
 H         2.003150         0.733120        -0.958209
 H         2.120549         0.510172         0.678602
 H         2.141159        -0.909351        -0.441116
 H        -2.707067         0.300502         1.505076
 H        -4.239786         1.076602        -0.510859
 H        -3.281834         2.055680         0.368413
 H        -2.639551         1.530222        -1.222909
 H        -1.301758        -2.439479         0.785753
 H        -2.596577        -2.241753         2.019704
 H        -3.720004        -3.207849        -0.557808
