19
Iteration:  2826
 C         1.316021        -0.660216        -0.777202
 C         0.017981        -0.380070        -0.052321
 C        -1.071076        -0.012130         0.314514
 C        -2.439949         0.093203         0.938420
 C        -3.143959         1.228761         0.149784
 O        -3.338470        -0.979977         0.521192
 C        -2.975432        -2.290529         1.039504
 C        -2.724091        -3.351194        -0.148563
 O        -2.327816        -4.492378        -0.204390
 H         2.148392        -0.131394        -0.181296
 H         1.406323        -1.745029        -0.639203
 H         1.279194        -0.360319        -1.869199
 H        -2.470164         0.215448         2.048573
 H        -4.200837         1.334224         0.438154
 H        -2.457791         2.177597         0.257476
 H        -3.104748         0.935948        -0.893363
 H        -2.000719        -2.192263         1.499276
 H        -3.703345        -2.719180         1.751577
 H        -2.836384        -2.701429        -1.128575
