19
Iteration:   341charge 0 multiplicity 1
 C         1.495712         0.106020         0.195857
 C         0.124762         0.346039        -0.041051
 C        -1.054293         0.236602        -0.074947
 C        -2.439761        -0.080671         0.096762
 C        -3.374983         0.897948        -0.633938
 O        -2.753359        -1.443613        -0.458214
 C        -2.224369        -2.521547         0.298407
 C        -3.285994        -3.740260         0.612862
 O        -3.145387        -4.464976         1.587639
 H         1.978068         0.943365         0.854151
 H         1.605989        -0.906342         0.649445
 H         2.041502         0.022293        -0.725305
 H        -2.601974        -0.036558         1.165440
 H        -2.915018         1.797654        -1.167375
 H        -3.917884         0.287163        -1.427100
 H        -4.134543         1.243246         0.059833
 H        -1.372157        -3.039829        -0.168132
 H        -1.890155        -2.151105         1.249146
 H        -4.161010        -3.765722        -0.068317
