19
Iteration:  4160charge 0 multiplicity 1
 C         1.260146        -1.288102        -0.191068
 C        -0.021144        -0.736645         0.174398
 C        -1.066886        -0.373242         0.710551
 C        -2.499993        -0.056715         1.116698
 C        -3.029957         1.474752         0.816801
 O        -3.452369        -0.981699         0.474858
 C        -3.065243        -2.312960         0.580758
 C        -2.472576        -2.743285        -0.795572
 O        -2.334576        -3.929827        -1.050327
 H         1.858622        -1.530513         0.678937
 H         1.157425        -2.165119        -0.792855
 H         1.707885        -0.484217        -0.761290
 H        -2.406408        -0.092790         2.266307
 H        -2.314708         2.156540         1.375047
 H        -2.805693         1.585503        -0.236227
 H        -3.995795         1.666383         1.207175
 H        -2.247771        -2.377353         1.308897
 H        -4.006672        -2.912007         0.716197
 H        -2.459458        -2.022517        -1.616987
