19
Iteration:  3923
 C         0.929718        -1.468015        -0.490135
 C        -0.141171        -0.718347         0.110401
 C        -1.101181        -0.076574         0.534920
 C        -2.526286        -0.043396         1.129007
 C        -3.111979         1.314212         0.974185
 O        -3.292996        -0.824384         0.352098
 C        -3.147985        -2.244070         0.465016
 C        -2.326133        -2.822256        -0.654625
 O        -1.944834        -3.979150        -0.615798
 H         1.781137        -1.016747         0.045574
 H         0.785643        -2.550952        -0.268100
 H         0.923571        -1.514860        -1.556704
 H        -2.373488        -0.406231         2.210501
 H        -2.416551         2.187580         1.174416
 H        -3.379214         1.373900        -0.134479
 H        -3.992618         1.391392         1.627723
 H        -2.692620        -2.546697         1.484708
 H        -4.245413        -2.462210         0.202719
 H        -2.311374        -2.080326        -1.493281
