19
Iteration:  2623charge 0 multiplicity 1
 C         1.498165        -0.439056        -0.524749
 C         0.014277        -0.380034        -0.241977
 C        -1.125895         0.056493         0.219690
 C        -2.551263         0.132698         0.805274
 C        -3.240724         1.141915        -0.140334
 O        -3.254970        -1.184591         0.754108
 C        -2.529413        -2.365298         1.037693
 C        -2.455673        -3.350651        -0.138367
 O        -3.032092        -4.458732        -0.062181
 H         1.587810         0.267860        -1.349005
 H         2.211100        -0.038746         0.260018
 H         1.893310        -1.409461        -0.945568
 H        -2.569524         0.386610         1.881191
 H        -4.330455         1.059518        -0.314427
 H        -2.965083         2.211491         0.199847
 H        -2.776912         0.979620        -1.081742
 H        -1.544691        -2.158006         1.327628
 H        -3.182929        -2.780527         1.804373
 H        -1.915809        -2.995669        -1.128017
