19
Iteration:  4633
 C         1.495557        -0.721602         0.108010
 C         0.195814        -0.297063         0.629572
 C        -0.944220        -0.119364         0.987617
 C        -2.365120        -0.219227         1.234643
 C        -2.954785         1.171405         0.862938
 O        -2.934045        -1.074989         0.282571
 C        -2.510671        -2.412709         0.166534
 C        -3.135012        -2.985184        -1.122429
 O        -3.459949        -4.153154        -1.179699
 H         1.785034        -1.696795         0.437044
 H         1.503210        -0.292990        -0.916045
 H         2.141632        -0.019712         0.642288
 H        -2.602268        -0.546955         2.235458
 H        -2.699671         1.917679         1.563931
 H        -2.460514         1.124962        -0.145395
 H        -3.991343         0.963255         0.739443
 H        -1.425553        -2.482455         0.425164
 H        -2.929365        -3.178711         0.845118
 H        -3.267578        -2.330049        -1.989699
