19
Iteration:  2644
 C         1.378297        -0.315075        -0.506816
 C        -0.020498        -0.385468        -0.243851
 C        -1.045712        -0.113451         0.253195
 C        -2.342066         0.141368         0.726962
 C        -3.230878         1.051464        -0.141572
 O        -3.265517        -1.025386         0.819600
 C        -2.618901        -2.330560         1.067200
 C        -2.543498        -3.360017        -0.150192
 O        -2.988618        -4.525397        -0.145828
 H         1.785056        -0.066799        -1.426785
 H         1.856919         0.443569         0.098891
 H         1.848251        -1.294253        -0.285467
 H        -2.260845         0.543931         1.739565
 H        -4.270665         0.818491         0.002937
 H        -3.103645         2.167349         0.027140
 H        -3.071802         0.885516        -1.163856
 H        -1.568064        -2.282632         1.124502
 H        -3.058415        -2.778135         1.949469
 H        -1.882622        -3.098650        -0.977289
