19
Iteration:  3148
 C         1.118148        -1.048533        -0.613837
 C        -0.242139        -0.879742        -0.258799
 C        -1.244999        -0.348423         0.147763
 C        -2.446951         0.046618         0.858593
 C        -2.971597         1.443356         0.658482
 O        -3.569051        -0.930309         0.426430
 C        -3.311564        -2.272747         0.781786
 C        -2.375972        -3.013735        -0.272021
 O        -1.678284        -3.981956        -0.098680
 H         1.622118        -0.112077        -0.650425
 H         1.566051        -1.650446         0.196277
 H         1.143220        -1.476448        -1.646163
 H        -2.276276        -0.001027         1.968623
 H        -3.898843         1.493081         1.238385
 H        -2.217395         2.249344         0.959853
 H        -3.175031         1.598974        -0.387052
 H        -2.899929        -2.323101         1.843214
 H        -4.307665        -2.896035         0.777152
 H        -2.729820        -2.605623        -1.257783
