19
Iteration:  4465charge 0 multiplicity 1
 C         1.769935        -0.499831         0.230475
 C         0.312219        -0.372442         0.376984
 C        -0.903988        -0.389611         0.530706
 C        -2.240092        -0.190205         1.039894
 C        -2.916592         1.316136         1.079665
 O        -3.197664        -0.975079         0.211926
 C        -3.291090        -2.375204         0.392945
 C        -3.106285        -3.089534        -0.995026
 O        -3.042333        -4.299045        -1.096275
 H         2.335339         0.174431         0.894437
 H         1.903020        -1.563978         0.475244
 H         2.136001        -0.351165        -0.820459
 H        -2.307323        -0.621386         2.072158
 H        -2.140169         1.988722         1.484862
 H        -3.097916         1.612736         0.069222
 H        -3.782720         1.164265         1.751591
 H        -2.414474        -2.758394         1.095066
 H        -4.121876        -2.850702         0.981346
 H        -3.024500        -2.404473        -1.851840
