19
Iteration:  2062charge 0 multiplicity 1
 C         1.079229        -1.116735        -0.555032
 C        -0.126118        -0.537254         0.006275
 C        -1.277929        -0.242228         0.382600
 C        -2.657924         0.087489         0.650099
 C        -3.199259         1.234754        -0.284476
 O        -3.567120        -1.030043         0.496058
 C        -3.134541        -2.266413         1.037038
 C        -2.200528        -2.983941        -0.009624
 O        -1.635847        -4.039342         0.071503
 H         1.262891        -0.649955        -1.570041
 H         1.905311        -1.041678         0.182479
 H         0.844978        -2.163158        -0.834467
 H        -2.675613         0.461895         1.691774
 H        -3.918879         1.906522         0.155380
 H        -2.325506         1.899073        -0.584185
 H        -3.584998         0.782863        -1.175850
 H        -2.538903        -2.204571         1.966574
 H        -4.030856        -2.789949         1.280392
 H        -2.315845        -2.396010        -0.981845
