19
Iteration:   895
 C         1.385658        -0.175690        -0.250863
 C         0.015106        -0.201431         0.052970
 C        -1.091087         0.149358         0.375851
 C        -2.571243         0.110761         0.362379
 C        -3.366997         0.945041        -0.641885
 O        -2.894677        -1.216295        -0.110893
 C        -2.735947        -2.182694         0.943084
 C        -2.557991        -3.563802         0.278425
 O        -2.841738        -4.613511         0.754160
 H         1.865472         0.713836         0.148671
 H         1.807887        -1.044780         0.269879
 H         1.601577        -0.369099        -1.315223
 H        -3.074366         0.285510         1.330502
 H        -4.177489         1.379607        -0.040872
 H        -2.804172         1.619651        -1.297163
 H        -3.915526         0.201724        -1.337174
 H        -1.762376        -2.091419         1.443957
 H        -3.565938        -2.190895         1.650333
 H        -1.969793        -3.423107        -0.650355
