19
Iteration:  3030charge 0 multiplicity 1
 C         1.029033        -0.870204        -0.871201
 C        -0.139701        -0.696534        -0.007291
 C        -1.203285        -0.540224         0.488410
 C        -2.525844         0.018467         0.955066
 C        -2.834535         1.385644         0.442125
 O        -3.539308        -0.893210         0.296444
 C        -3.245339        -2.214544         0.711410
 C        -2.475439        -3.106762        -0.234144
 O        -1.753790        -4.055801         0.021556
 H         1.573271        -1.871642        -0.771670
 H         0.619311        -0.865218        -1.983984
 H         1.611485         0.011241        -0.620006
 H        -2.667842        -0.118444         2.066103
 H        -3.730643         1.588286         1.008211
 H        -2.101937         2.219701         0.673220
 H        -3.017224         1.340625        -0.592421
 H        -2.824337        -2.267371         1.740335
 H        -4.175321        -2.780593         0.850129
 H        -2.686761        -2.981117        -1.346658
