19
Iteration:  3841
 C         1.109207        -1.115740        -0.522168
 C        -0.136950        -0.710817        -0.041201
 C        -1.091879        -0.304220         0.587747
 C        -2.500051        -0.106536         1.020808
 C        -2.880592         1.395791         0.921996
 O        -3.456795        -0.934724         0.289574
 C        -3.302378        -2.310764         0.531533
 C        -2.392527        -2.861021        -0.546236
 O        -2.036261        -4.000990        -0.503035
 H         1.468625        -2.099902        -0.261938
 H         0.984375        -1.112128        -1.614750
 H         1.748607        -0.332754        -0.091236
 H        -2.584666        -0.444152         2.100737
 H        -2.712649         1.673515         1.943590
 H        -2.339042         1.976561         0.232347
 H        -3.974522         1.532493         0.702059
 H        -2.806796        -2.416945         1.481698
 H        -4.296703        -2.739714         0.709304
 H        -2.095756        -2.101847        -1.320468
