19
Iteration:  3911charge 0 multiplicity 1
 C         0.960431        -1.480700        -0.503053
 C        -0.162600        -0.695184         0.077289
 C        -1.100024        -0.058365         0.589239
 C        -2.443788         0.020847         1.080436
 C        -3.170630         1.405593         1.033699
 O        -3.338970        -0.898264         0.379374
 C        -3.105639        -2.224300         0.405103
 C        -2.334285        -2.846355        -0.709343
 O        -1.983220        -4.013488        -0.558181
 H         1.998101        -1.436825        -0.087323
 H         0.724446        -2.573982        -0.429308
 H         1.127747        -1.118178        -1.455778
 H        -2.464899        -0.401721         2.135807
 H        -2.456967         2.150342         1.504508
 H        -3.214896         1.637836        -0.097762
 H        -4.184670         1.504622         1.363726
 H        -2.851675        -2.686653         1.423471
 H        -4.120268        -2.809365         0.333460
 H        -1.954795        -2.318124        -1.608475
