19
Iteration:   824charge 0 multiplicity 1
 C         1.476664        -0.296622         0.097134
 C         0.054471         0.201051        -0.171213
 C        -1.175862         0.135975        -0.202532
 C        -2.505497         0.021237         0.280052
 C        -3.492117         0.855141        -0.497144
 O        -3.073004        -1.267013         0.096865
 C        -2.391474        -2.169176         0.989228
 C        -2.505966        -3.550182         0.292700
 O        -3.066578        -4.588151         0.677461
 H         1.379228        -0.962421         1.002321
 H         1.727171        -0.966832        -0.788346
 H         2.369382         0.370761         0.173621
 H        -2.356899         0.312084         1.370459
 H        -4.573453         0.797940        -0.170854
 H        -3.139002         1.912087        -0.549017
 H        -3.410943         0.380887        -1.422491
 H        -1.262844        -1.985178         1.137133
 H        -2.969749        -2.204388         1.976469
 H        -1.918515        -3.552245        -0.654106
