19
Iteration:  1611
 C         1.642218         0.548665        -0.238228
 C         0.283866         0.256977         0.278243
 C        -0.911665         0.149516         0.170822
 C        -2.298544        -0.099172         0.393329
 C        -3.329012         0.931023        -0.120062
 O        -2.827222        -1.481084         0.066981
 C        -2.250769        -2.795298         0.035484
 C        -3.403563        -3.732471         0.088706
 O        -3.519882        -4.544341         1.045004
 H         2.453039        -0.205028        -0.073092
 H         1.688043         0.790218        -1.263509
 H         2.078990         1.467269         0.230489
 H        -2.382976        -0.061810         1.485547
 H        -2.656143         1.690584        -0.595824
 H        -3.944519         0.369709        -0.956228
 H        -3.936473         1.501793         0.588220
 H        -1.568747        -2.910807        -0.832996
 H        -1.559107        -2.907355         0.932988
 H        -4.278576        -3.665864        -0.656109
