19
Iteration:   388
 C         1.549931         0.179224         0.168203
 C         0.109861         0.039309         0.120571
 C        -1.094005         0.159275         0.065976
 C        -2.499911        -0.152777         0.121147
 C        -3.480057         0.742778        -0.658827
 O        -2.877114        -1.412399        -0.352319
 C        -2.053565        -2.432017         0.177095
 C        -3.018136        -3.574175         0.539020
 O        -3.280100        -4.304590         1.490660
 H         1.798350         1.122335        -0.352620
 H         2.069215         0.055290         1.134093
 H         1.944747        -0.720605        -0.432232
 H        -2.653915        -0.113812         1.182039
 H        -3.602061         0.222661        -1.554704
 H        -4.476747         0.868688        -0.208345
 H        -3.023636         1.730350        -0.878515
 H        -1.195364        -2.716641        -0.413243
 H        -1.714693        -2.193388         1.206257
 H        -3.663917        -3.535595        -0.346596
