19
Iteration:  3278
 C         0.997436        -1.189954        -0.643218
 C        -0.240998        -0.691419        -0.007448
 C        -1.280886        -0.294518         0.530376
 C        -2.571733         0.058966         0.968096
 C        -3.111189         1.431820         0.456261
 O        -3.403402        -0.969217         0.417429
 C        -2.964337        -2.232534         0.742875
 C        -2.156797        -2.911901        -0.421046
 O        -2.002304        -4.117127        -0.264206
 H         0.854712        -2.174149        -1.080971
 H         1.372169        -0.520622        -1.433412
 H         1.707779        -1.211293         0.263534
 H        -2.522121         0.133043         2.060893
 H        -2.248202         2.066513         0.129066
 H        -3.842284         1.450278        -0.432141
 H        -3.518838         2.035999         1.251412
 H        -2.497866        -2.213384         1.717128
 H        -3.821460        -2.926479         0.849989
 H        -1.890102        -2.503583        -1.373071
