19
Iteration:  3423
 C         1.333853        -0.756767        -0.318545
 C        -0.101589        -0.570520        -0.193010
 C        -1.258767        -0.540776         0.167456
 C        -2.444635        -0.099019         0.770174
 C        -2.753286         1.354890         0.451027
 O        -3.596755        -0.951562         0.630955
 C        -3.220914        -2.388904         1.017675
 C        -2.688237        -3.043890        -0.386769
 O        -1.995415        -4.035397        -0.520206
 H         1.653918         0.255870        -0.328078
 H         1.641929        -1.124344         0.667617
 H         1.637324        -1.262805        -1.269949
 H        -2.228962        -0.236629         1.855684
 H        -2.159361         2.081599         1.012801
 H        -2.657397         1.542090        -0.599097
 H        -3.850558         1.609446         0.673195
 H        -2.501296        -2.394108         1.795067
 H        -4.129565        -2.906188         1.368985
 H        -3.175242        -2.438888        -1.144807
