19
Iteration:  3193charge 0 multiplicity 1
 C         1.072648        -1.276221        -0.598447
 C        -0.158340        -0.519619        -0.171794
 C        -1.176790        -0.095777         0.323596
 C        -2.485139        -0.045171         0.850648
 C        -3.089135         1.394132         0.637982
 O        -3.564216        -0.922028         0.386017
 C        -3.088833        -2.212782         0.706310
 C        -2.426861        -3.057250        -0.382827
 O        -1.778748        -4.067223        -0.072286
 H         1.324657        -0.923093        -1.576279
 H         1.963151        -1.299471         0.084063
 H         0.681417        -2.287562        -0.792231
 H        -2.448080        -0.343640         1.935761
 H        -3.195685         1.782399         1.660141
 H        -2.449893         2.084792         0.018686
 H        -4.038584         1.280097         0.185657
 H        -2.329073        -2.368982         1.525852
 H        -3.960792        -2.921871         0.833048
 H        -2.663941        -2.608345        -1.366793
