19
Iteration:  2286charge 0 multiplicity 1
 C         1.193155        -0.994632        -0.823789
 C        -0.037658        -0.340123        -0.135323
 C        -1.294539        -0.296295         0.151819
 C        -2.697752        -0.138945         0.625341
 C        -2.937599         1.343065         0.484678
 O        -3.652080        -1.043271        -0.019401
 C        -3.369900        -2.321260         0.543313
 C        -2.211067        -3.122389         0.036447
 O        -1.730854        -3.955267         0.798365
 H         2.154983        -0.431438        -0.694636
 H         1.253734        -2.040692        -0.424085
 H         0.865125        -1.018130        -1.926625
 H        -2.720562        -0.374347         1.712597
 H        -3.984678         1.715334         0.564732
 H        -2.274027         1.853304         1.220244
 H        -2.428923         1.659703        -0.515943
 H        -3.229514        -2.152075         1.594795
 H        -4.169961        -3.043084         0.380077
 H        -1.913842        -2.937000        -1.032807
