19
Iteration:  1750
 C         1.665448         0.080450        -0.196515
 C         0.215443         0.156052        -0.084796
 C        -1.039988         0.044029         0.085261
 C        -2.365055        -0.117131         0.508824
 C        -3.230101         0.979136        -0.127152
 O        -3.078843        -1.207705        -0.009853
 C        -2.607372        -2.399365         0.591637
 C        -3.262965        -3.645075         0.143390
 O        -2.932801        -4.667254         0.714246
 H         1.959451         1.102810        -0.451906
 H         2.090189        -0.266220         0.833456
 H         1.910381        -0.675605        -1.014107
 H        -2.406906         0.073633         1.600123
 H        -4.202295         0.551419        -0.106487
 H        -3.208303         1.962703         0.438441
 H        -3.002014         1.208519        -1.157075
 H        -1.458802        -2.513947         0.480612
 H        -2.762242        -2.351745         1.684086
 H        -4.095317        -3.491060        -0.699858
