19
Iteration:  3927charge 0 multiplicity 1
 C         0.903096        -1.455473        -0.462182
 C        -0.141015        -0.728850         0.109637
 C        -1.112282        -0.098777         0.528216
 C        -2.484371        -0.041455         1.166320
 C        -3.094881         1.296258         0.939894
 O        -3.308964        -0.805217         0.317640
 C        -3.183363        -2.239193         0.488716
 C        -2.327557        -2.803007        -0.624576
 O        -1.923030        -3.976299        -0.646070
 H         1.855594        -1.016330        -0.097627
 H         0.892587        -2.503300        -0.142728
 H         0.958965        -1.556262        -1.658390
 H        -2.387537        -0.284119         2.253160
 H        -2.472466         2.142821         1.143897
 H        -3.460995         1.385384        -0.049861
 H        -3.900474         1.390588         1.735704
 H        -2.734927        -2.579001         1.449782
 H        -4.208439        -2.687234         0.277530
 H        -2.372892        -2.123604        -1.511500
