19
Iteration:  4212charge 0 multiplicity 1
 C         1.273607        -1.227237        -0.079241
 C         0.007850        -0.593976         0.326717
 C        -1.079273        -0.076404         0.451960
 C        -2.399422        -0.041722         1.102329
 C        -3.008885         1.332226         0.927025
 O        -3.263421        -0.943709         0.459255
 C        -3.107709        -2.356294         0.528515
 C        -2.487511        -2.913813        -0.747224
 O        -2.572696        -4.031989        -1.147177
 H         2.109161        -0.574846         0.207998
 H         1.349768        -2.150490         0.460375
 H         1.243824        -1.457297        -1.205310
 H        -2.144226        -0.127533         2.127328
 H        -2.834879         1.905667         1.876671
 H        -2.678595         1.739386        -0.068156
 H        -4.097798         1.183690         0.898772
 H        -2.645928        -2.798796         1.426452
 H        -4.230200        -2.627961         0.422658
 H        -1.926976        -2.143652        -1.378578
