19
Iteration:  1125
 C         1.406516        -0.186255        -0.003785
 C         0.020703        -0.113789         0.264302
 C        -1.188424         0.105813         0.082891
 C        -2.629102         0.028363         0.319790
 C        -3.252291         1.110849        -0.595380
 O        -3.091482        -1.293922        -0.047149
 C        -2.354875        -2.265480         0.693611
 C        -3.050517        -3.547311         0.474572
 O        -2.562890        -4.630716         0.543552
 H         2.081186         0.268464         0.782253
 H         1.850241        -1.203451        -0.384067
 H         1.416851         0.491737        -0.890384
 H        -2.966699         0.252959         1.331349
 H        -4.106004         1.619619        -0.075434
 H        -2.451392         1.741637        -1.015977
 H        -3.825088         0.711672        -1.370153
 H        -1.233312        -2.340945         0.482714
 H        -2.376199        -2.219018         1.833921
 H        -4.191287        -3.339840         0.456783
