19
Iteration:  3865charge 0 multiplicity 1
 C         1.032425        -1.253442        -0.546273
 C        -0.152320        -0.686838         0.051580
 C        -1.201383        -0.214265         0.486939
 C        -2.559873        -0.010002         1.097977
 C        -2.948421         1.475561         1.033689
 O        -3.403579        -0.862094         0.270837
 C        -3.154194        -2.273574         0.527323
 C        -2.273336        -2.935966        -0.576274
 O        -2.009798        -4.118898        -0.579306
 H         1.484391        -1.993011         0.130598
 H         0.678262        -1.872012        -1.405161
 H         1.742353        -0.513201        -0.708341
 H        -2.701333        -0.441396         2.148417
 H        -2.790723         1.806765         2.055137
 H        -2.352675         2.063230         0.311768
 H        -3.982271         1.608625         0.723853
 H        -2.786858        -2.344043         1.560742
 H        -4.176775        -2.696176         0.627561
 H        -2.249659        -2.332702        -1.514619
