19
Iteration:  2670charge 0 multiplicity 1
 C         1.531628        -0.315463        -0.559203
 C         0.099165        -0.172801        -0.162908
 C        -1.101439        -0.295296         0.197131
 C        -2.456696         0.005651         0.704464
 C        -3.233284         1.054952        -0.163043
 O        -3.252359        -1.150355         0.788803
 C        -2.630881        -2.414279         1.157891
 C        -2.678449        -3.216001        -0.130409
 O        -2.918830        -4.388194        -0.124157
 H         1.915632        -0.589571        -1.629625
 H         2.085777         0.691695        -0.474273
 H         2.094645        -0.951381         0.118318
 H        -2.420049         0.463992         1.730719
 H        -4.275921         1.312792         0.239407
 H        -2.666762         1.968345        -0.181963
 H        -3.441667         0.713668        -1.265596
 H        -1.638913        -2.452647         1.610296
 H        -3.447779        -2.903577         1.744706
 H        -2.690963        -2.614650        -1.122717
