19
Iteration:  2432charge 0 multiplicity 1
 C         1.501569        -0.204354        -0.598480
 C        -0.036817        -0.513342        -0.428150
 C        -1.071258        -0.170990         0.092528
 C        -2.397159         0.007892         0.729529
 C        -3.009034         1.404125         0.237863
 O        -3.333595        -1.085033         0.264357
 C        -3.357194        -2.365557         0.824678
 C        -2.575054        -3.393129         0.066876
 O        -2.406558        -4.579858         0.432974
 H         2.045382        -1.135709        -1.007007
 H         1.753611         0.572745        -1.334379
 H         1.829838         0.078546         0.388391
 H        -2.305548        -0.164078         1.832201
 H        -4.069095         1.603815         0.551094
 H        -2.251180         2.139987         0.537550
 H        -2.894258         1.348890        -0.860946
 H        -2.996795        -2.459652         1.828476
 H        -4.408452        -2.642599         0.677353
 H        -2.371450        -3.102495        -0.943340
