19
Iteration:  2948
 C         1.183588        -1.056020        -0.681277
 C        -0.124323        -0.546691        -0.378910
 C        -1.164670        -0.089989         0.167565
 C        -2.413551         0.070466         0.883309
 C        -3.179942         1.274877         0.562261
 O        -3.467633        -0.878402         0.477337
 C        -3.232707        -2.208762         0.785307
 C        -2.188700        -3.076418        -0.147008
 O        -2.080159        -4.321709        -0.060548
 H         1.150996        -1.510235        -1.657469
 H         1.810149        -0.194844        -0.600781
 H         1.460343        -1.854412         0.069270
 H        -2.206483        -0.011593         1.961799
 H        -4.228921         1.077361         0.892776
 H        -2.747710         2.067301         1.170528
 H        -3.208185         1.508499        -0.530470
 H        -2.850003        -2.326994         1.801723
 H        -4.220532        -2.683801         0.642160
 H        -1.591412        -2.476583        -0.801485
