19
Iteration:  2178charge 0 multiplicity 1
 C         0.817378        -1.449762        -0.644530
 C        -0.239949        -0.621396        -0.141993
 C        -1.343735        -0.121694         0.065087
 C        -2.706975         0.024100         0.545594
 C        -3.064122         1.520359         0.424415
 O        -3.616931        -1.039146         0.086844
 C        -3.379047        -2.384655         0.660755
 C        -2.030010        -3.040000         0.068522
 O        -1.210496        -3.746189         0.576386
 H         0.565936        -2.485715        -0.372195
 H         1.052372        -1.303952        -1.684678
 H         1.783313        -1.349298        -0.153555
 H        -2.604236        -0.103340         1.645231
 H        -4.059544         1.626969         0.912940
 H        -2.312537         2.055202         0.963007
 H        -3.078703         1.912086        -0.657010
 H        -3.546464        -2.327218         1.761061
 H        -4.138956        -3.108415         0.237167
 H        -1.883022        -2.656355        -1.072881
