19
Iteration:     4charge 0 multiplicity 1
 C         1.623350         0.132697        -0.182036
 C         0.189764         0.026378        -0.113459
 C        -1.031408         0.040672        -0.037208
 C        -2.490049        -0.064098         0.032626
 C        -3.152720         0.737518        -1.083599
 O        -2.969854        -1.370523        -0.090045
 C        -2.574795        -2.194656         0.975046
 C        -3.145799        -3.601965         0.681047
 O        -3.107382        -4.507030         1.438249
 H         2.073567         0.067340         0.846965
 H         2.051375        -0.651141        -0.785060
 H         2.010279         1.026197        -0.575166
 H        -2.716155         0.392696         1.064585
 H        -2.842387         0.224538        -2.054593
 H        -4.226352         0.793796        -0.984913
 H        -2.800988         1.752778        -1.076882
 H        -1.487898        -2.251920         1.102840
 H        -3.030885        -1.725020         1.897499
 H        -3.676846        -3.730776        -0.323048
