19
Iteration:  2056
 C         1.115261        -1.103410        -0.570172
 C        -0.140528        -0.534412         0.021764
 C        -1.245285        -0.289775         0.405649
 C        -2.675644         0.097239         0.697459
 C        -3.218236         1.224278        -0.312289
 O        -3.607379        -1.045030         0.477415
 C        -3.021104        -2.203185         1.031537
 C        -2.229833        -2.965258        -0.028199
 O        -1.686725        -4.042556         0.079434
 H         1.452366        -0.586366        -1.450681
 H         1.947961        -1.131944         0.154089
 H         0.979845        -2.145122        -0.936560
 H        -2.829338         0.369373         1.765981
 H        -3.962529         1.894822         0.199438
 H        -2.355756         1.782944        -0.716494
 H        -3.691471         0.728641        -1.192985
 H        -2.456037        -2.166625         1.992756
 H        -3.944016        -2.835721         1.281164
 H        -2.283681        -2.409553        -1.021332
