19
Iteration:   456charge 0 multiplicity 1
 C         1.534385         0.291990         0.003187
 C         0.042499         0.387696         0.056657
 C        -1.124637         0.056553         0.305127
 C        -2.558805        -0.256921         0.262175
 C        -3.181695         0.925396        -0.675103
 O        -2.849850        -1.483194        -0.429120
 C        -2.248122        -2.431338         0.375096
 C        -3.031863        -3.762829         0.460803
 O        -3.303981        -4.423445         1.404407
 H         1.726878        -0.216886        -0.938481
 H         2.157821         1.211424         0.066421
 H         1.855515        -0.389173         0.951787
 H        -3.059471        -0.416154         1.185643
 H        -4.233795         1.180567        -0.445148
 H        -2.476220         1.729633        -0.840026
 H        -3.102315         0.365478        -1.610047
 H        -1.399120        -2.914618        -0.131929
 H        -1.718076        -1.898102         1.266111
 H        -3.341586        -3.888767        -0.615666
