19
Iteration:   511charge 0 multiplicity 1
 C         1.713954         0.554132        -0.014984
 C         0.252212         0.180986         0.170954
 C        -0.991967         0.137821         0.089752
 C        -2.474092        -0.082833         0.179686
 C        -3.285942         0.747833        -0.786574
 O        -2.954744        -1.394243        -0.151930
 C        -2.315131        -2.500394         0.596957
 C        -3.223873        -3.724293         0.480402
 O        -3.336384        -4.711450         1.154282
 H         2.405046        -0.293369         0.056344
 H         1.797761         1.022992        -1.019153
 H         1.983316         1.390439         0.797812
 H        -2.767448         0.116986         1.218579
 H        -4.155762         1.324871        -0.322957
 H        -2.701626         1.584516        -1.221645
 H        -3.695746         0.119639        -1.556012
 H        -1.385406        -2.888115         0.281534
 H        -2.155188        -2.091646         1.651789
 H        -3.636307        -3.587081        -0.572298
