19
Iteration:  1075
 C         1.587377        -0.071678        -0.010958
 C         0.110544         0.089487        -0.116273
 C        -1.077416         0.061731         0.028720
 C        -2.496301         0.022944         0.338445
 C        -3.163032         1.012148        -0.530325
 O        -3.145478        -1.225113         0.013076
 C        -2.924636        -2.290447         0.895729
 C        -3.218939        -3.726028         0.432734
 O        -2.352903        -4.616365         0.557653
 H         1.697981        -0.824198         0.766188
 H         1.975903        -0.455456        -0.951779
 H         2.200402         0.786830         0.309235
 H        -2.667325         0.288308         1.410427
 H        -4.156493         1.399870        -0.195728
 H        -2.466740         1.891653        -0.611948
 H        -3.347207         0.470846        -1.526204
 H        -1.943601        -2.243209         1.340311
 H        -3.726466        -2.303229         1.708743
 H        -4.242572        -3.943102         0.080529
