19
Iteration:  2049charge 0 multiplicity 1
 C         1.149164        -1.078741        -0.575360
 C        -0.097455        -0.576708         0.004424
 C        -1.277838        -0.316958         0.448788
 C        -2.718860         0.120739         0.705095
 C        -3.217223         1.178320        -0.320244
 O        -3.616095        -1.041065         0.474428
 C        -2.916483        -2.178854         1.028304
 C        -2.273676        -2.933529        -0.068120
 O        -1.755712        -4.047667         0.101116
 H         1.666670        -0.315075        -1.265910
 H         1.950728        -1.204255         0.135045
 H         1.005714        -2.075967        -0.932797
 H        -2.889937         0.364759         1.756672
 H        -3.907634         1.811290         0.181931
 H        -2.464091         1.728920        -0.769401
 H        -3.826881         0.618863        -1.061865
 H        -2.366833        -1.876441         1.912047
 H        -3.622814        -2.948771         1.262619
 H        -2.204842        -2.451124        -1.167276
