19
Iteration:    36charge 0 multiplicity 1
 C         1.592292         0.224318        -0.162327
 C         0.203070        -0.119363        -0.189468
 C        -1.000712         0.008428         0.021123
 C        -2.420998        -0.033582        -0.000937
 C        -3.283311         0.708751        -1.104124
 O        -2.687555        -1.453192        -0.082592
 C        -2.627389        -2.164612         1.127699
 C        -3.377880        -3.451173         0.782082
 O        -3.024135        -4.539176         1.218915
 H         1.752455         0.929228         0.701699
 H         2.248783        -0.629174        -0.028397
 H         1.850941         0.738628        -1.033346
 H        -2.725363         0.357151         0.990259
 H        -3.932086        -0.071481        -1.627890
 H        -3.945877         1.366028        -0.590954
 H        -2.683739         1.253175        -1.816164
 H        -1.659088        -2.470472         1.521366
 H        -3.176539        -1.599666         1.886621
 H        -4.206932        -3.299018         0.069660
