19
Iteration:  1473charge 0 multiplicity 1
 C         1.801987         0.681819        -0.260816
 C         0.326945         0.456606         0.028660
 C        -0.803893         0.054666         0.175473
 C        -2.283865        -0.232420         0.459159
 C        -3.252324         0.862670        -0.170872
 O        -2.827056        -1.448707        -0.096100
 C        -2.686076        -2.599731         0.733319
 C        -3.314456        -3.776271         0.023979
 O        -3.503213        -4.722667         0.776856
 H         1.946005         1.588128        -0.917369
 H         2.363328         0.802093         0.685826
 H         2.177774        -0.200408        -0.779231
 H        -2.501290        -0.192636         1.555640
 H        -4.240922         0.480843         0.210026
 H        -2.853613         1.865942         0.098268
 H        -3.356244         0.953086        -1.301280
 H        -1.633510        -2.824315         1.013434
 H        -3.302500        -2.580567         1.633124
 H        -3.637464        -3.748166        -1.029253
