19
Iteration:  4225charge 0 multiplicity 1
 C         1.296200        -1.179123        -0.025782
 C         0.014045        -0.601726         0.198960
 C        -1.001215        -0.115209         0.597360
 C        -2.371119         0.010915         1.060051
 C        -3.044604         1.377461         0.962646
 O        -3.303790        -0.980122         0.378194
 C        -3.123796        -2.378631         0.523056
 C        -2.464468        -2.933965        -0.721993
 O        -2.623979        -4.057767        -1.162949
 H         2.127593        -0.494925        -0.118942
 H         1.602429        -1.944159         0.657297
 H         1.276427        -1.633073        -1.049286
 H        -2.526225        -0.472885         2.066628
 H        -2.515394         2.077981         1.728002
 H        -2.707880         1.978312         0.098401
 H        -4.127761         1.374145         1.127915
 H        -2.573113        -2.602297         1.515707
 H        -4.151970        -3.012409         0.597415
 H        -2.072822        -2.013869        -1.321402
