19
Iteration:  3138
 C         1.173232        -1.045643        -0.678709
 C        -0.221137        -0.846522        -0.201675
 C        -1.248926        -0.310897         0.134344
 C        -2.493940        -0.048594         0.821456
 C        -2.959069         1.363731         0.607104
 O        -3.618697        -0.898486         0.486907
 C        -3.274307        -2.259064         0.797041
 C        -2.424571        -2.950694        -0.237234
 O        -1.699118        -3.942619        -0.074134
 H         1.602181        -0.098881        -0.444498
 H         1.712954        -1.885620        -0.125058
 H         1.430729        -1.432673        -1.685518
 H        -2.335482        -0.356696         1.892482
 H        -3.968069         1.574832         0.971075
 H        -2.241611         2.019405         1.232335
 H        -2.873468         1.595339        -0.417032
 H        -2.944036        -2.502895         1.873998
 H        -4.136026        -2.907795         0.404671
 H        -2.616033        -2.566268        -1.299328
