19
Iteration:  2237charge 0 multiplicity 1
 C         1.132315        -1.272528        -0.833680
 C        -0.231674        -0.845913        -0.261997
 C        -1.134506        -0.200764         0.266365
 C        -2.617315        -0.020749         0.773398
 C        -3.374405         1.374462         0.447511
 O        -3.433258        -0.926053         0.018439
 C        -3.391884        -2.284343         0.480222
 C        -2.084901        -2.955225         0.058132
 O        -1.543306        -3.787707         0.747796
 H         1.727177        -1.490427         0.067235
 H         1.043384        -2.233112        -1.352125
 H         1.534810        -0.425540        -1.391542
 H        -2.746957        -0.262745         1.860918
 H        -4.152360         1.578612         1.160608
 H        -2.714721         2.262594         0.380214
 H        -3.781863         1.264001        -0.503769
 H        -3.642842        -2.398771         1.581632
 H        -4.126099        -2.844841        -0.171204
 H        -1.903668        -2.752890        -1.117177
