19
Iteration:  3238charge 0 multiplicity 1
 C         0.949078        -1.335204        -0.647420
 C        -0.118619        -0.589785         0.000372
 C        -1.111458        -0.050956         0.422231
 C        -2.514103         0.168565         0.855899
 C        -3.259819         1.421476         0.565022
 O        -3.337834        -0.921584         0.394326
 C        -3.142182        -2.265228         0.773440
 C        -2.273822        -3.044321        -0.278947
 O        -1.848960        -4.205152        -0.304622
 H         0.761128        -1.625795        -1.687805
 H         1.892875        -0.697841        -0.700290
 H         1.336297        -2.124682        -0.062196
 H        -2.535213         0.041816         1.982723
 H        -2.611229         2.222308         0.927046
 H        -3.437957         1.538585        -0.479626
 H        -4.242795         1.375516         1.085159
 H        -2.855305        -2.535119         1.872583
 H        -4.171335        -2.635635         0.505809
 H        -2.320462        -2.379475        -1.253701
