19
Iteration:  4832charge 0 multiplicity 1
 C         1.872464        -0.062981         0.386783
 C         0.361658        -0.190026         0.651789
 C        -0.762779        -0.290847         1.016081
 C        -2.166694        -0.376735         1.169549
 C        -2.790740         1.079444         1.055728
 O        -2.811107        -1.163720         0.082303
 C        -2.732757        -2.570295         0.054199
 C        -3.782384        -3.081540        -1.019406
 O        -3.717390        -4.223919        -1.427655
 H         2.112415        -0.449603        -0.578929
 H         1.928593         0.999516         0.409147
 H         2.256785        -0.743521         1.077024
 H        -2.471048        -0.773749         2.095614
 H        -2.657041         1.471587         2.101086
 H        -2.334217         1.616514         0.302518
 H        -3.849905         0.991885         0.744124
 H        -1.798335        -2.917233        -0.229469
 H        -3.024655        -2.867355         1.109570
 H        -4.562229        -2.419627        -1.415070
