19
Iteration:  3934
 C         0.926131        -1.461104        -0.449973
 C        -0.177015        -0.723668         0.107746
 C        -1.132908        -0.158473         0.548228
 C        -2.379973        -0.003433         1.162545
 C        -3.090303         1.310165         0.939760
 O        -3.356311        -0.824949         0.290446
 C        -3.226044        -2.226509         0.501523
 C        -2.345534        -2.819003        -0.596516
 O        -1.889837        -3.939313        -0.689689
 H         1.945745        -1.055887        -0.370037
 H         1.018437        -2.428518         0.068419
 H         0.872943        -1.505513        -1.515316
 H        -2.496422        -0.269057         2.264872
 H        -2.351218         2.160755         1.090671
 H        -3.644381         1.389037        -0.037565
 H        -3.863008         1.428549         1.711946
 H        -2.857106        -2.552303         1.551062
 H        -4.114742        -2.927323         0.488220
 H        -2.291636        -2.207285        -1.530044
