19
Iteration:   733
 C         1.620942         0.064209        -0.179777
 C         0.137892         0.252707         0.015687
 C        -1.063835         0.002473         0.239266
 C        -2.588429         0.024070         0.258082
 C        -3.251341         0.932645        -0.772632
 O        -3.193558        -1.294931         0.207092
 C        -2.449504        -2.397394         0.923580
 C        -2.864304        -3.612524         0.203626
 O        -3.017335        -4.695215         0.810515
 H         1.681887        -0.702174        -1.010525
 H         2.265494         0.964385        -0.389293
 H         2.136852        -0.394280         0.682767
 H        -2.896659         0.372330         1.287149
 H        -4.308317         0.706628        -0.696970
 H        -2.952099         1.941132        -0.476207
 H        -2.819441         0.749937        -1.869904
 H        -1.338009        -2.167576         0.780894
 H        -2.789849        -2.525228         1.999076
 H        -2.971154        -3.519211        -0.897193
