19
Iteration:  1809charge 0 multiplicity 1
 C         1.463587        -0.010412        -0.342512
 C         0.118542        -0.154151         0.106035
 C        -1.124552         0.155627         0.169463
 C        -2.477067         0.134533         0.558527
 C        -3.120556         1.090018        -0.485028
 O        -3.089208        -1.243702         0.410207
 C        -2.480247        -2.409459         0.977542
 C        -3.083006        -3.609820         0.078395
 O        -2.889240        -4.758595         0.294429
 H         1.531920         0.021360        -1.487174
 H         2.003702         0.831310        -0.008848
 H         2.177750        -0.780857        -0.130668
 H        -2.636760         0.484684         1.621142
 H        -4.259881         0.935500        -0.499770
 H        -2.974492         2.118357        -0.109030
 H        -2.748666         0.952210        -1.562002
 H        -1.338020        -2.381901         0.881967
 H        -2.773531        -2.495333         2.040572
 H        -3.746901        -3.234193        -0.832132
