19
Iteration:  2859
 C         1.258857        -0.824256        -0.753099
 C        -0.019610        -0.438682        -0.171541
 C        -1.087253        -0.095906         0.413723
 C        -2.488428         0.168386         0.900923
 C        -3.287303         1.426293         0.295654
 O        -3.249035        -1.047817         0.517304
 C        -2.883377        -2.388856         0.794178
 C        -2.604365        -3.265338        -0.373411
 O        -2.296166        -4.356557         0.056004
 H         2.020688         0.050986        -0.792020
 H         1.633334        -1.505415         0.009217
 H         1.263723        -1.320028        -1.802420
 H        -2.554853         0.218998         2.021198
 H        -4.138397         1.712115         0.961778
 H        -2.569514         2.370119         0.370478
 H        -3.638829         1.244459        -0.709546
 H        -2.156882        -2.627630         1.555989
 H        -3.818820        -2.832166         1.308044
 H        -2.818491        -3.026591        -1.448411
