19
Iteration:   435
 C         1.490916         0.234629        -0.001123
 C         0.072968         0.129137         0.158969
 C        -1.141610         0.115905         0.274853
 C        -2.567604        -0.145957         0.172648
 C        -3.284422         0.854792        -0.666993
 O        -2.819581        -1.482052        -0.429658
 C        -2.103721        -2.464210         0.325035
 C        -3.078376        -3.744864         0.382023
 O        -3.243404        -4.288247         1.474666
 H         1.707256         0.361323        -1.044325
 H         1.793185         1.129434         0.568951
 H         2.058650        -0.581189         0.556330
 H        -3.089256        -0.211176         1.117838
 H        -4.379987         0.678531        -0.506256
 H        -2.989471         1.821642        -0.255056
 H        -2.963909         0.938248        -1.703246
 H        -1.086652        -2.593814        -0.128239
 H        -1.926770        -2.278396         1.444551
 H        -3.635772        -3.911372        -0.570226
