19
Iteration:   684
 C         1.546730         0.317755        -0.348988
 C         0.127989         0.084396         0.097799
 C        -1.053251         0.256867         0.337942
 C        -2.494010         0.037334         0.422947
 C        -3.067411         0.923406        -0.794445
 O        -2.846291        -1.440203        -0.046607
 C        -2.752001        -2.387933         0.981463
 C        -3.216788        -3.724891         0.362333
 O        -2.912082        -4.793946         0.768644
 H         1.598182         0.819217        -1.284378
 H         1.974854         0.875916         0.461446
 H         2.196139        -0.553104        -0.419204
 H        -2.994848         0.141054         1.380653
 H        -4.108663         1.347569        -0.651040
 H        -2.297110         1.720679        -0.976353
 H        -3.080308         0.264553        -1.615078
 H        -1.655730        -2.548514         1.394954
 H        -3.436364        -2.095633         1.800125
 H        -4.006288        -3.541411        -0.413117
