19
Iteration:  1982charge 0 multiplicity 1
 C         1.344970        -0.768942        -0.251638
 C        -0.030798        -0.276424        -0.140720
 C        -1.179683        -0.101127         0.051713
 C        -2.573094         0.159233         0.490065
 C        -3.360035         1.141700        -0.445240
 O        -3.361732        -0.990895         0.879354
 C        -2.909022        -2.327075         1.195799
 C        -2.515860        -3.267733        -0.047536
 O        -2.112854        -4.393027        -0.095640
 H         2.076743        -0.303902         0.536207
 H         1.356922        -1.851602        -0.129011
 H         1.862034        -0.649574        -1.214232
 H        -2.542022         0.881617         1.326547
 H        -4.297859         1.341441         0.080699
 H        -2.785613         1.952630        -0.739622
 H        -3.663888         0.614663        -1.365057
 H        -2.100667        -2.387948         1.913348
 H        -3.818509        -2.645918         1.685813
 H        -2.650988        -2.728913        -0.933750
