19
Iteration:  3173charge 0 multiplicity 1
 C         1.122774        -1.199560        -0.626203
 C        -0.209497        -0.714360        -0.292048
 C        -1.243112        -0.300415         0.275821
 C        -2.562051         0.061772         0.891694
 C        -3.070463         1.514332         0.719976
 O        -3.473419        -0.928833         0.361609
 C        -3.174761        -2.263063         0.745162
 C        -2.428437        -3.079221        -0.356122
 O        -1.717212        -4.030352        -0.078557
 H         1.764555        -0.434650        -1.184498
 H         1.489903        -1.207549         0.448893
 H         1.114670        -2.069535        -1.223557
 H        -2.504294         0.012839         2.000770
 H        -3.537144         1.949768         1.606481
 H        -2.232105         2.054449         0.308264
 H        -3.790018         1.514060        -0.104574
 H        -2.551406        -2.311073         1.714373
 H        -4.037543        -2.917705         0.884856
 H        -2.712185        -2.673665        -1.370479
