19
Iteration:  2964charge 0 multiplicity 1
 C         1.175155        -1.059597        -0.761015
 C        -0.122679        -0.497083        -0.322101
 C        -1.197059        -0.182531         0.278434
 C        -2.447261         0.030875         0.982273
 C        -3.141846         1.366587         0.535087
 O        -3.444008        -0.849898         0.477485
 C        -3.309377        -2.289032         0.677371
 C        -2.265672        -3.101346        -0.161648
 O        -1.982939        -4.287780        -0.032848
 H         1.218035        -1.861572        -1.560951
 H         1.949975        -0.328416        -1.209803
 H         1.742603        -1.418047         0.114679
 H        -2.331802        -0.078504         2.097821
 H        -4.141030         1.427316         0.937137
 H        -2.597917         2.312803         0.642328
 H        -3.256749         1.235799        -0.533868
 H        -2.841446        -2.426040         1.697588
 H        -4.356369        -2.653987         0.732042
 H        -1.689877        -2.418989        -0.853673
