19
Iteration:    93charge 0 multiplicity 1
 C         1.739864         0.268788        -0.145172
 C         0.260013         0.521654        -0.213632
 C        -0.904075         0.108948        -0.065966
 C        -2.331351        -0.172200         0.052567
 C        -3.123860         0.508333        -1.049361
 O        -2.864409        -1.482318        -0.078976
 C        -2.777850        -2.165912         1.136960
 C        -3.584685        -3.577923         1.058080
 O        -3.036382        -4.659597         0.943225
 H         2.340200         1.117252        -0.512762
 H         2.049594        -0.033178         0.858217
 H         1.910584        -0.626834        -0.765746
 H        -2.677741         0.155743         1.075593
 H        -4.059721         0.912771        -0.625171
 H        -2.490549         1.356951        -1.522275
 H        -3.418358        -0.209524        -1.857968
 H        -1.779929        -2.592753         1.259778
 H        -2.990679        -1.429289         1.919144
 H        -4.658780        -3.503194         0.994758
