19
Iteration:  4338charge 0 multiplicity 1
 C         1.536293        -0.598425         0.000663
 C         0.162116        -0.466236         0.347408
 C        -0.964948        -0.471526         0.857598
 C        -2.421957        -0.251191         1.134729
 C        -2.688534         1.281395         0.828139
 O        -3.201678        -0.972052         0.279163
 C        -3.358935        -2.327657         0.434788
 C        -2.893006        -2.954649        -0.897262
 O        -2.787754        -4.167571        -1.075489
 H         1.589038        -1.319796        -0.805248
 H         1.881742         0.420769        -0.302576
 H         2.073015        -0.764934         0.878867
 H        -2.522146        -0.625347         2.118208
 H        -2.236009         1.846530         1.608552
 H        -2.308030         1.410975        -0.220514
 H        -3.794186         1.216512         0.639806
 H        -2.961774        -2.968201         1.323769
 H        -4.546168        -2.519714         0.544568
 H        -2.651701        -2.206306        -1.631827
