19
Iteration:   568
 C         1.596820         0.649905         0.019822
 C         0.259333         0.251360        -0.150048
 C        -0.932845         0.069917        -0.181417
 C        -2.312930        -0.124537         0.180689
 C        -3.029826         0.748044        -0.775662
 O        -2.981925        -1.449500         0.051084
 C        -2.619804        -2.411716         1.079097
 C        -3.433187        -3.709466         0.602104
 O        -3.152971        -4.854548         0.777145
 H         1.905768         0.718960         1.110646
 H         2.344542         0.102063        -0.612277
 H         1.626715         1.811259        -0.230579
 H        -2.320259         0.170972         1.239429
 H        -4.155195         0.663073        -0.841526
 H        -2.821485         1.806747        -0.444849
 H        -2.651494         0.690571        -1.823386
 H        -1.596290        -2.577860         1.246522
 H        -3.204884        -1.946767         1.943088
 H        -4.159869        -3.500853        -0.204976
