19
Iteration:   991charge 0 multiplicity 1
 C         1.512114         0.089981        -0.265024
 C         0.095618        -0.133573        -0.076849
 C        -1.086138        -0.093774         0.230916
 C        -2.469565        -0.031466         0.379237
 C        -2.984282         1.079731        -0.652764
 O        -3.255146        -1.233904         0.122367
 C        -3.112366        -2.337643         0.932742
 C        -2.844438        -3.644989         0.163874
 O        -2.539460        -4.585960         0.805596
 H         1.960702        -0.094547        -1.237898
 H         1.647957         1.136254        -0.047213
 H         2.005482        -0.371430         0.651484
 H        -2.692056         0.236959         1.422789
 H        -3.907037         0.787600        -0.967836
 H        -2.926532         2.003234        -0.149246
 H        -2.223832         1.250318        -1.415620
 H        -2.370004        -2.097196         1.716219
 H        -4.048439        -2.537385         1.501216
 H        -2.915814        -3.564145        -0.930723
