19
Iteration:  4971
 C         1.792810        -0.129618         0.618648
 C         0.356433        -0.102341         0.619711
 C        -0.793627        -0.380726         0.764844
 C        -2.234111        -0.509237         0.982271
 C        -2.800280         0.856760         1.398234
 O        -2.994655        -1.020046        -0.141011
 C        -2.514995        -2.426102        -0.205950
 C        -3.370122        -3.112924        -1.225963
 O        -4.026455        -4.086775        -0.952924
 H         2.333316         0.567416         1.321077
 H         2.254943        -1.090123         0.696987
 H         2.184605         0.226369        -0.349685
 H        -2.279500        -1.109898         1.863069
 H        -2.569928         0.996888         2.497105
 H        -2.596963         1.635374         0.761776
 H        -3.885232         0.955019         1.257637
 H        -1.498042        -2.424685        -0.549563
 H        -2.650936        -2.869904         0.731192
 H        -3.083850        -2.727164        -2.280102
