19
Iteration:  3319
 C         1.099833        -1.019568        -0.573956
 C        -0.071881        -0.602556         0.059440
 C        -1.186662        -0.230415         0.394662
 C        -2.532036         0.034588         0.959646
 C        -2.911180         1.397945         0.335318
 O        -3.579387        -0.994993         0.551018
 C        -3.253757        -2.357429         0.846901
 C        -2.409886        -3.008504        -0.406630
 O        -1.889041        -4.123082        -0.408316
 H         1.445504        -1.968414        -0.045719
 H         0.923150        -1.152477        -1.636347
 H         1.940570        -0.299816        -0.397502
 H        -2.622876        -0.050344         2.053735
 H        -2.076060         1.852775        -0.228042
 H        -3.809411         1.221842        -0.326829
 H        -3.158475         2.048547         1.143147
 H        -2.391541        -2.497822         1.582503
 H        -4.114093        -2.886084         1.256754
 H        -2.297324        -2.147752        -1.156983
