19
Iteration:   524
 C         1.619674         0.598718        -0.001212
 C         0.279488         0.204778         0.090515
 C        -0.906034        -0.040862         0.130062
 C        -2.359393        -0.078529         0.147194
 C        -3.326335         0.728379        -0.801331
 O        -2.933927        -1.391220        -0.112925
 C        -2.371482        -2.377141         0.695961
 C        -3.227591        -3.671072         0.454172
 O        -3.338784        -4.752700         1.076169
 H         2.299042        -0.205934         0.399170
 H         1.952022         0.790608        -1.051672
 H         1.859683         1.576993         0.624481
 H        -2.619866         0.191522         1.176306
 H        -4.209915         0.909342        -0.104096
 H        -2.919354         1.564014        -1.423401
 H        -3.651562        -0.024315        -1.531372
 H        -1.345095        -2.435416         0.326624
 H        -2.321119        -2.160761         1.831959
 H        -4.042772        -3.507983        -0.303339
