19
Iteration:  1787
 C         1.554649         0.048102        -0.244824
 C         0.044029        -0.059477        -0.116009
 C        -1.073195        -0.010988         0.208377
 C        -2.520062         0.057336         0.421919
 C        -3.183357         1.252574        -0.383503
 O        -3.057557        -1.267985         0.258382
 C        -2.405015        -2.413668         0.964042
 C        -3.028306        -3.606600         0.254240
 O        -3.007134        -4.821578         0.336957
 H         1.884815         0.596735        -1.191398
 H         1.957293         0.507010         0.613287
 H         2.129268        -0.855539        -0.336257
 H        -2.658534         0.167596         1.531237
 H        -4.269336         1.009750        -0.685027
 H        -3.150366         2.118309         0.326817
 H        -2.672480         1.486761        -1.367019
 H        -1.291617        -2.517603         0.801954
 H        -2.669643        -2.354298         2.034763
 H        -3.752092        -3.167730        -0.577724
