19
Iteration:   592
 C         1.744342         0.715785        -0.062100
 C         0.284629         0.316159        -0.213643
 C        -0.845909        -0.122520         0.007921
 C        -2.356895        -0.021252         0.192986
 C        -3.093945         0.932727        -0.836549
 O        -2.941234        -1.466810         0.031532
 C        -2.824609        -2.414945         1.076197
 C        -3.505845        -3.830715         0.674124
 O        -3.040670        -4.931073         0.723834
 H         1.853009         1.228244         0.961552
 H         2.373154        -0.237322        -0.127420
 H         2.148550         1.506175        -0.732297
 H        -2.555166         0.337074         1.199787
 H        -4.095081         0.649764        -1.117273
 H        -3.210852         1.919680        -0.335406
 H        -2.549199         1.172535        -1.838684
 H        -1.775736        -2.469762         1.419691
 H        -3.567702        -2.133146         1.901670
 H        -4.582980        -3.757836         0.440256
