19
Iteration:  3495
 C         1.339805        -0.854367        -0.614119
 C         0.090972        -0.518311         0.079726
 C        -1.064374        -0.258690         0.390121
 C        -2.452782         0.024831         0.953460
 C        -3.050417         1.392862         0.568786
 O        -3.487404        -0.997811         0.536166
 C        -3.309058        -2.335388         0.777529
 C        -2.484677        -3.080476        -0.454616
 O        -2.198446        -4.265871        -0.454536
 H         1.247259        -1.138171        -1.704517
 H         1.967963         0.016150        -0.521312
 H         1.674804        -1.792705        -0.131299
 H        -2.431522        -0.003608         2.046120
 H        -2.625825         2.200926         1.178799
 H        -2.734883         1.572378        -0.464420
 H        -4.144086         1.469551         0.552118
 H        -3.058421        -2.739962         1.822875
 H        -4.327338        -2.754906         0.580154
 H        -2.269645        -2.261595        -1.163260
