19
Iteration:  3869charge 0 multiplicity 1
 C         1.026056        -1.304205        -0.527222
 C        -0.128955        -0.674159         0.047643
 C        -1.187777        -0.224529         0.487566
 C        -2.582392        -0.009771         1.117111
 C        -2.986100         1.486611         1.026280
 O        -3.410193        -0.844263         0.289535
 C        -3.156679        -2.236408         0.523551
 C        -2.253599        -2.949163        -0.595823
 O        -1.995236        -4.156302        -0.590840
 H         1.496675        -1.975291         0.235584
 H         0.594439        -1.809847        -1.414505
 H         1.658469        -0.434392        -0.965056
 H        -2.574512        -0.356210         2.224285
 H        -2.729408         1.741223         2.094159
 H        -2.401429         2.164102         0.323139
 H        -4.030990         1.627124         0.749766
 H        -2.635756        -2.221523         1.563987
 H        -4.231704        -2.644980         0.491226
 H        -2.260155        -2.337371        -1.535782
