19
Iteration:  1626charge 0 multiplicity 1
 C         1.713390         0.524144        -0.227461
 C         0.318170         0.217754         0.186692
 C        -0.890396         0.140642         0.209029
 C        -2.366211        -0.155654         0.546213
 C        -3.343863         0.860281        -0.192328
 O        -2.887138        -1.379319        -0.015286
 C        -2.186930        -2.648021         0.040102
 C        -3.363811        -3.695509         0.186724
 O        -3.532566        -4.599631         1.018106
 H         2.387743        -0.188534         0.330714
 H         1.614959         0.273080        -1.352007
 H         1.932389         1.570704         0.019426
 H        -2.475305        -0.152898         1.657836
 H        -3.039538         1.910420        -0.366907
 H        -3.806525         0.420520        -1.045726
 H        -4.114016         1.070164         0.567584
 H        -1.831988        -2.884236        -1.017961
 H        -1.382721        -2.911982         0.767947
 H        -4.000468        -3.590320        -0.644927
