19
Iteration:  4439
 C         1.754381        -0.436186         0.257201
 C         0.232004        -0.424327         0.249540
 C        -0.941080        -0.489899         0.639032
 C        -2.333548        -0.296619         0.966465
 C        -2.743729         1.217718         1.090159
 O        -3.263593        -0.885713         0.175637
 C        -3.227165        -2.294414         0.409723
 C        -3.135040        -3.066227        -0.962660
 O        -2.962135        -4.263508        -1.043434
 H         2.114434        -0.292702         1.295784
 H         2.048091        -1.375707        -0.163259
 H         2.178402         0.343609        -0.343540
 H        -2.462514        -0.770608         1.913936
 H        -1.945202         1.968277         1.118007
 H        -3.095580         1.294496         0.067488
 H        -3.489226         1.188457         1.830299
 H        -2.565867        -2.536254         1.234965
 H        -4.130484        -2.793241         0.891944
 H        -3.175282        -2.363630        -1.883042
