19
Iteration:   881
 C         1.472168        -0.316059        -0.163701
 C        -0.001728        -0.034032         0.018313
 C        -1.142204         0.333923         0.209909
 C        -2.570617         0.151484         0.325719
 C        -3.460620         0.995430        -0.629942
 O        -2.890865        -1.252327        -0.032409
 C        -2.691777        -2.196527         0.950056
 C        -2.540806        -3.624880         0.343646
 O        -2.899620        -4.747923         0.702854
 H         2.061873         0.392083         0.437655
 H         1.827992        -1.313128         0.069692
 H         1.754040        -0.048616        -1.254255
 H        -2.751765         0.295421         1.425096
 H        -4.233463         1.546114        -0.176796
 H        -2.808860         1.644947        -1.240485
 H        -3.855308         0.258743        -1.332798
 H        -1.625983        -2.051057         1.429456
 H        -3.465225        -2.100306         1.782306
 H        -1.883861        -3.552096        -0.582742
