19
Iteration:  3920
 C         0.951245        -1.482290        -0.502306
 C        -0.155633        -0.705865         0.109024
 C        -1.093130        -0.067961         0.545174
 C        -2.526153        -0.034741         1.105412
 C        -3.127937         1.342770         0.999732
 O        -3.291547        -0.850144         0.374803
 C        -3.125871        -2.243772         0.451145
 C        -2.330939        -2.839534        -0.674290
 O        -1.959347        -3.978297        -0.595797
 H         1.795704        -1.083822         0.077261
 H         0.734138        -2.560252        -0.313823
 H         0.925657        -1.399601        -1.543387
 H        -2.417274        -0.475054         2.092513
 H        -2.405950         2.141935         1.206145
 H        -3.327652         1.383566        -0.106534
 H        -4.075760         1.415350         1.499948
 H        -2.769249        -2.512116         1.412788
 H        -4.163565        -2.372872         0.226941
 H        -2.207395        -2.089308        -1.521050
