19
Iteration:  1387charge 0 multiplicity 1
 C         1.602941         0.445584        -0.396334
 C         0.290694         0.256451         0.227879
 C        -0.909999         0.158051         0.287938
 C        -2.333254        -0.064245         0.538603
 C        -3.264123         0.723021        -0.407977
 O        -2.707846        -1.347110         0.023639
 C        -2.736163        -2.435601         0.978064
 C        -3.229382        -3.641437         0.087944
 O        -3.290733        -4.788951         0.475286
 H         2.388686         0.696602         0.289611
 H         1.920943        -0.533082        -0.802732
 H         1.630845         1.159392        -1.177447
 H        -2.620144         0.005957         1.584674
 H        -3.176117         1.807701        -0.161585
 H        -2.906101         0.722474        -1.476140
 H        -4.228566         0.145174        -0.420667
 H        -1.672926        -2.599307         1.333795
 H        -3.428743        -2.344467         1.857595
 H        -3.830955        -3.411275        -0.870772
