19
Iteration:  3809charge 0 multiplicity 1
 C         1.239156        -0.965772        -0.549710
 C         0.027803        -0.672685         0.065134
 C        -1.119077        -0.581782         0.468019
 C        -2.438226        -0.116680         1.111218
 C        -2.895202         1.366838         0.788034
 O        -3.553288        -0.842796         0.462795
 C        -3.427707        -2.253697         0.461663
 C        -2.504252        -2.924470        -0.557402
 O        -1.979108        -4.020875        -0.464835
 H         1.494077        -1.929856        -0.952844
 H         1.368612        -0.151177        -1.345462
 H         2.106215        -0.691304         0.054574
 H        -2.604602        -0.361531         2.216776
 H        -2.349815         2.113383         1.383660
 H        -2.666308         1.635354        -0.205267
 H        -3.954771         1.460307         1.145473
 H        -3.388192        -2.673712         1.504792
 H        -4.472195        -2.654998         0.209573
 H        -2.442536        -2.346974        -1.513515
