19
Iteration:  4158
 C         1.241083        -1.278739        -0.185260
 C        -0.033177        -0.751914         0.169694
 C        -1.080737        -0.376274         0.706165
 C        -2.498646        -0.047592         1.131365
 C        -3.009610         1.466712         0.814869
 O        -3.447706        -0.969977         0.467653
 C        -3.055397        -2.323046         0.573224
 C        -2.484245        -2.751622        -0.783740
 O        -2.321214        -3.924211        -1.050261
 H         1.859321        -1.563602         0.645439
 H         1.177268        -2.111321        -0.806497
 H         1.739999        -0.454067        -0.735202
 H        -2.440300        -0.152118         2.292498
 H        -2.282634         2.139421         1.305729
 H        -2.831614         1.596186        -0.280988
 H        -3.991853         1.660007         1.205440
 H        -2.217222        -2.398288         1.303178
 H        -4.027218        -2.908673         0.734652
 H        -2.485629        -1.945709        -1.569619
