19
Iteration:  2933charge 0 multiplicity 1
 C         1.192133        -1.041801        -0.669969
 C        -0.107210        -0.554945        -0.319206
 C        -1.186065        -0.093818         0.122224
 C        -2.463101         0.046505         0.758477
 C        -3.212289         1.478119         0.619253
 O        -3.403810        -1.001216         0.431459
 C        -3.085468        -2.371945         0.822594
 C        -2.231245        -3.038389        -0.079998
 O        -2.172961        -4.249713        -0.054120
 H         1.330685        -1.239477        -1.786937
 H         2.048603        -0.375350        -0.350257
 H         1.304309        -1.962901        -0.182471
 H        -2.251832        -0.129618         1.833189
 H        -4.259989         1.315790         0.884860
 H        -2.876511         2.411403         1.213245
 H        -3.114491         1.752003        -0.413047
 H        -2.893369        -2.469685         1.905393
 H        -4.008075        -3.052444         0.779541
 H        -1.773544        -2.518814        -1.049561
