19
Iteration:  4675
 C         1.793632        -0.529653         0.276865
 C         0.334611        -0.497010         0.567885
 C        -0.854077        -0.230316         0.808348
 C        -2.362677        -0.203781         1.111094
 C        -3.056693         1.227076         0.952666
 O        -3.161454        -1.074010         0.290761
 C        -2.521388        -2.397013         0.229516
 C        -3.317202        -3.033549        -1.006659
 O        -3.429569        -4.201614        -1.324730
 H         2.321897        -0.808443         1.248472
 H         1.912235        -1.329062        -0.607464
 H         2.253697         0.462388        -0.084721
 H        -2.329067        -0.558166         2.241166
 H        -2.757880         1.994929         1.654502
 H        -2.804342         1.796867        -0.053484
 H        -4.155451         1.112087         1.022858
 H        -1.471213        -2.455309         0.077126
 H        -2.817142        -2.866368         1.265110
 H        -3.767686        -2.177762        -1.621991
