19
Iteration:   332charge 0 multiplicity 1
 C         1.605527         0.119105         0.156343
 C         0.125449         0.292004        -0.024968
 C        -1.108312         0.300658        -0.088635
 C        -2.476001        -0.060949         0.043093
 C        -3.382477         0.888711        -0.609849
 O        -2.778037        -1.415788        -0.523297
 C        -2.243056        -2.504974         0.352086
 C        -3.269303        -3.729649         0.681715
 O        -3.160797        -4.543189         1.596488
 H         1.838512         0.799779         1.049691
 H         1.750154        -0.858003         0.651051
 H         2.280149         0.306560        -0.685881
 H        -2.692295        -0.215289         1.057079
 H        -2.760341         1.753859        -0.741802
 H        -3.493105         0.412800        -1.603671
 H        -4.263230         1.118636        -0.059285
 H        -1.485079        -3.012791        -0.253232
 H        -1.889718        -2.130605         1.316240
 H        -4.144007        -3.705161        -0.081092
