19
Iteration:   768charge 0 multiplicity 1
 C         1.474392         0.032523        -0.032109
 C         0.017097        -0.329319         0.092638
 C        -1.170796         0.000889        -0.116753
 C        -2.510637         0.119676         0.315565
 C        -3.408404         0.945545        -0.667926
 O        -3.086527        -1.203439         0.189320
 C        -2.290923        -2.314006         0.911057
 C        -2.623704        -3.554169         0.196183
 O        -3.075015        -4.560685         0.771637
 H         2.124579        -0.892468        -0.300964
 H         1.593138         0.705850        -0.959971
 H         1.849684         0.422952         0.905169
 H        -2.539666         0.542010         1.371122
 H        -4.432498         0.491942        -0.770540
 H        -3.683363         1.949654        -0.300378
 H        -3.009293         1.066198        -1.687802
 H        -1.182623        -2.198748         0.774603
 H        -2.480499        -2.290263         2.025809
 H        -2.365959        -3.608978        -0.877000
