19
Iteration:   351charge 0 multiplicity 1
 C         1.503782         0.083597         0.220598
 C         0.138439         0.399412        -0.051498
 C        -1.048754         0.150606        -0.062105
 C        -2.461087        -0.128703         0.111023
 C        -3.440186         0.877596        -0.672155
 O        -2.739994        -1.461732        -0.363262
 C        -2.238301        -2.606546         0.294740
 C        -3.249821        -3.633561         0.557771
 O        -3.126837        -4.355225         1.531357
 H         2.222856         0.913487         0.600355
 H         1.568129        -0.804394         0.900407
 H         1.927679        -0.132916        -0.741664
 H        -2.772181        -0.106938         1.198205
 H        -2.871141         1.606846        -1.415355
 H        -4.320455         0.342494        -1.145232
 H        -3.943426         1.529716         0.095750
 H        -1.308715        -2.888007        -0.227068
 H        -1.880644        -2.399882         1.293556
 H        -4.054951        -3.908533        -0.088720
