19
Iteration:  4436charge 0 multiplicity 1
 C         1.746961        -0.415509         0.261950
 C         0.223765        -0.455230         0.262284
 C        -0.956304        -0.441120         0.622264
 C        -2.310903        -0.315444         0.985477
 C        -2.713161         1.212134         1.082773
 O        -3.273702        -0.900176         0.171759
 C        -3.251445        -2.302103         0.420126
 C        -3.129540        -3.050526        -0.978095
 O        -2.951904        -4.259183        -1.026878
 H         2.094439        -0.428833         1.297928
 H         2.074302        -1.365327        -0.257099
 H         2.116552         0.403618        -0.348896
 H        -2.600512        -0.819053         1.971177
 H        -1.836082         1.859627         1.089182
 H        -3.076598         1.290904         0.003592
 H        -3.542426         1.214577         1.852799
 H        -2.484225        -2.523007         1.103269
 H        -4.138291        -2.707238         0.893555
 H        -3.174630        -2.365673        -1.931386
