19
Iteration:  4887charge 0 multiplicity 1
 C         1.843787        -0.062262         0.363267
 C         0.464578        -0.133814         0.861142
 C        -0.742501        -0.378139         0.992004
 C        -2.215993        -0.432568         1.099272
 C        -3.066382         0.925719         1.040854
 O        -2.744828        -1.133419        -0.010902
 C        -2.562799        -2.593481        -0.024541
 C        -3.530073        -2.992371        -1.021114
 O        -3.990473        -4.080077        -1.285307
 H         2.101830        -1.116181         0.442134
 H         1.965110         0.111607        -0.726133
 H         2.628748         0.512596         0.858186
 H        -2.448722        -0.899470         2.100970
 H        -2.534636         1.676443         1.665614
 H        -3.007437         1.341160         0.061854
 H        -4.022077         0.594271         1.511628
 H        -1.544134        -2.855158        -0.328613
 H        -2.683165        -2.972533         1.053606
 H        -3.858578        -2.175945        -1.757931
