19
Iteration:  3252charge 0 multiplicity 1
 C         1.000857        -1.272001        -0.640009
 C        -0.249370        -0.737944        -0.029760
 C        -1.081989         0.015455         0.488044
 C        -2.493146         0.091125         0.977352
 C        -3.212861         1.405450         0.509198
 O        -3.396793        -0.895650         0.365756
 C        -3.171931        -2.251111         0.761538
 C        -2.214529        -3.025745        -0.347910
 O        -1.874992        -4.198569        -0.309217
 H         0.682831        -1.911316        -1.548514
 H         1.647768        -0.436528        -0.980660
 H         1.471418        -1.937635         0.086497
 H        -2.433218         0.046064         2.089628
 H        -2.603419         2.303444         0.445032
 H        -3.637442         1.266605        -0.471176
 H        -4.018798         1.681887         1.234101
 H        -2.635029        -2.188261         1.767221
 H        -4.078170        -2.812556         0.967857
 H        -1.802281        -2.402999        -1.205771
