19
Iteration:   512
 C         1.707719         0.560393        -0.015319
 C         0.256792         0.181235         0.165026
 C        -0.985690         0.124248         0.095707
 C        -2.468243        -0.083648         0.172735
 C        -3.283333         0.738232        -0.786010
 O        -2.955928        -1.385210        -0.150085
 C        -2.318824        -2.489240         0.602644
 C        -3.219401        -3.727413         0.486644
 O        -3.339022        -4.714074         1.144675
 H         2.412833        -0.296041         0.094227
 H         1.792222         0.997237        -1.038828
 H         1.977523         1.403387         0.807124
 H        -2.738120         0.108814         1.213347
 H        -4.171588         1.317610        -0.328873
 H        -2.751247         1.617523        -1.230776
 H        -3.711690         0.085126        -1.530179
 H        -1.374489        -2.880452         0.276244
 H        -2.176851        -2.073208         1.674032
 H        -3.674432        -3.569973        -0.561493
