19
Iteration:  1800charge 0 multiplicity 1
 C         1.455803         0.018062        -0.305962
 C         0.081474        -0.140070         0.024713
 C        -1.057157         0.105547         0.150950
 C        -2.483386         0.141295         0.487972
 C        -3.136443         1.195223        -0.431719
 O        -3.076535        -1.307168         0.344040
 C        -2.436135        -2.431066         0.988049
 C        -3.054905        -3.586757         0.174163
 O        -2.949752        -4.823465         0.294435
 H         1.566395         0.387796        -1.343341
 H         1.888546         0.842557         0.273880
 H         1.931762        -0.928060        -0.115961
 H        -2.655484         0.564487         1.496511
 H        -4.261157         0.997984        -0.553812
 H        -3.082348         2.184038        -0.032038
 H        -2.512210         1.194628        -1.410296
 H        -1.364030        -2.312988         0.936242
 H        -2.679995        -2.586213         2.071865
 H        -3.701503        -3.117848        -0.665584
