19
Iteration:  2155
 C         0.960260        -1.433916        -0.621549
 C        -0.325640        -0.888414        -0.196283
 C        -1.356098        -0.243280         0.096199
 C        -2.714999         0.041088         0.596127
 C        -3.167522         1.462258         0.369121
 O        -3.627289        -1.028798         0.102752
 C        -3.281092        -2.244616         0.740257
 C        -2.058156        -2.926462         0.077785
 O        -1.239911        -3.688691         0.477072
 H         0.965745        -2.465164        -1.002155
 H         1.367151        -0.713155        -1.331551
 H         1.746058        -1.462955         0.170494
 H        -2.714725        -0.090861         1.698904
 H        -4.296627         1.558714         0.325757
 H        -2.799084         2.035368         1.188557
 H        -2.649155         1.852484        -0.593209
 H        -3.184407        -2.075255         1.844924
 H        -4.060467        -3.052732         0.648248
 H        -2.003299        -2.493360        -1.045621
