19
Iteration:   440
 C         1.508333         0.234324         0.000808
 C         0.068903         0.191617         0.136933
 C        -1.144958         0.129969         0.293737
 C        -2.596764        -0.169294         0.185466
 C        -3.228740         0.819958        -0.642043
 O        -2.850455        -1.481284        -0.470265
 C        -2.130245        -2.464887         0.332190
 C        -3.060580        -3.692161         0.440322
 O        -3.258066        -4.328290         1.450434
 H         1.807612         0.223136        -1.087781
 H         1.844481         1.169128         0.482518
 H         1.976471        -0.513399         0.588998
 H        -3.070804        -0.229760         1.228222
 H        -4.312645         0.813694        -0.472007
 H        -2.809738         1.809895        -0.335651
 H        -3.013068         0.797007        -1.732277
 H        -1.148172        -2.644529        -0.143160
 H        -1.949851        -2.304550         1.370658
 H        -3.445433        -3.979236        -0.605442
