19
Iteration:  3542
 C         1.053471        -0.913622        -0.646543
 C        -0.152457        -0.396094         0.040282
 C        -1.177394        -0.333511         0.670794
 C        -2.522360        -0.071398         1.083245
 C        -2.974723         1.404715         0.624020
 O        -3.206696        -0.912237         0.215821
 C        -3.071690        -2.252209         0.600550
 C        -2.248979        -3.079709        -0.328660
 O        -2.368015        -4.305029        -0.413002
 H         0.931611        -1.943778        -0.855539
 H         1.282621        -0.363714        -1.534230
 H         1.863336        -1.088164         0.111750
 H        -2.737657        -0.061123         2.158967
 H        -2.132063         2.079900         0.757178
 H        -3.308528         1.370950        -0.396832
 H        -3.839779         1.739656         1.244173
 H        -2.657288        -2.500441         1.625584
 H        -4.066524        -2.816021         0.655478
 H        -1.852057        -2.439556        -1.230453
