19
Iteration:   953charge 0 multiplicity 1
 C         1.379546        -0.014688        -0.364486
 C         0.074843         0.062010         0.173128
 C        -1.114038        -0.146023         0.322607
 C        -2.620492         0.064013         0.319974
 C        -2.839801         1.230808        -0.646194
 O        -3.367176        -1.168240        -0.030584
 C        -2.997269        -2.239590         0.856265
 C        -2.680132        -3.791029         0.278020
 O        -2.563785        -4.829767         0.861052
 H         1.548772         0.453710        -1.358801
 H         2.083259         0.454165         0.378986
 H         1.665739        -1.020385        -0.518016
 H        -2.916877         0.369585         1.336358
 H        -3.895202         1.758752        -0.527493
 H        -2.157432         2.128378        -0.490159
 H        -2.793609         0.767869        -1.636896
 H        -1.990238        -2.081743         1.277744
 H        -3.713648        -2.362816         1.662626
 H        -2.228804        -3.717009        -0.740714
