19
Iteration:  1307
 C         1.604629         0.310104        -0.107100
 C         0.146894         0.167724        -0.016806
 C        -1.030299        -0.082730         0.264163
 C        -2.567059        -0.124628         0.375015
 C        -3.094206         1.201159        -0.268127
 O        -3.010221        -1.373781        -0.207168
 C        -2.546565        -2.353850         0.694884
 C        -3.221325        -3.696045         0.329368
 O        -2.951126        -4.867300         0.644708
 H         2.039178        -0.696889        -0.069314
 H         1.828200         0.846951        -0.971168
 H         1.881257         0.881151         0.784923
 H        -2.916091        -0.140028         1.401130
 H        -2.680454         1.458028        -1.285332
 H        -4.205091         1.262799        -0.273045
 H        -2.704510         2.066352         0.263560
 H        -1.441365        -2.507848         0.563228
 H        -2.870092        -2.104195         1.737082
 H        -3.912156        -3.510722        -0.487452
