19
Iteration:  4948charge 0 multiplicity 1
 C         1.872228        -0.068188         0.503195
 C         0.416829        -0.261554         0.636798
 C        -0.795870        -0.366923         0.858261
 C        -2.244165        -0.457573         1.077624
 C        -2.992022         0.966004         1.371133
 O        -2.850194        -0.957558        -0.114899
 C        -2.477554        -2.481534        -0.209338
 C        -3.373119        -3.183921        -1.239901
 O        -4.106024        -4.133548        -1.021485
 H         2.197195         0.053281         1.569329
 H         2.338601        -0.995978         0.137802
 H         2.277785         0.782513        -0.032786
 H        -2.361418        -1.090876         1.936752
 H        -2.495884         1.356651         2.278930
 H        -2.977717         1.651257         0.560647
 H        -4.036672         0.922822         1.592369
 H        -1.443376        -2.620319        -0.470830
 H        -2.725258        -2.879577         0.725483
 H        -3.240016        -2.680102        -2.222253
