19
Iteration:  2344charge 0 multiplicity 1
 C         1.356495        -0.402396        -0.788182
 C        -0.042536        -0.776407        -0.253629
 C        -1.110987        -0.411379         0.196224
 C        -2.440687        -0.059451         0.724632
 C        -3.004875         1.291575         0.299622
 O        -3.439988        -0.963454         0.135645
 C        -3.604869        -2.307071         0.640527
 C        -2.449753        -3.235484         0.105093
 O        -1.921903        -4.197527         0.640300
 H         1.103732         0.463901        -1.515669
 H         1.901354        -0.053933         0.092312
 H         1.971566        -1.132204        -1.236119
 H        -2.384886        -0.236319         1.812359
 H        -4.097774         1.332276         0.475450
 H        -2.504350         2.278736         0.706923
 H        -2.921175         1.305281        -0.760296
 H        -3.829625        -2.352699         1.694055
 H        -4.575027        -2.524907         0.145879
 H        -2.138411        -2.912140        -0.986724
