19
Iteration:  2211charge 0 multiplicity 1
 C         0.903842        -1.383835        -0.688713
 C        -0.214435        -0.595264        -0.320199
 C        -1.274594        -0.258467         0.262014
 C        -2.541647        -0.011698         0.706168
 C        -3.245188         1.306861         0.414953
 O        -3.511226        -0.905746         0.105530
 C        -3.280085        -2.260553         0.450196
 C        -2.025226        -3.059939        -0.096083
 O        -1.478680        -3.689229         0.770815
 H         0.967385        -2.180096         0.079623
 H         0.659303        -1.992148        -1.538785
 H         1.779769        -0.763702        -0.682843
 H        -2.656858        -0.165043         1.787093
 H        -3.976435         1.467023         1.230213
 H        -2.669193         2.229930         0.353262
 H        -3.864471         1.111989        -0.527977
 H        -3.144309        -2.365823         1.549879
 H        -4.196980        -2.863263         0.174772
 H        -1.747897        -2.978307        -1.255804
