19
Iteration:  2350charge 0 multiplicity 1
 C         1.313489        -0.363963        -0.789688
 C         0.054574        -0.741559        -0.196566
 C        -1.089148        -0.404253         0.202897
 C        -2.419271        -0.072682         0.678228
 C        -2.990899         1.273197         0.274807
 O        -3.468725        -0.988076         0.134633
 C        -3.588820        -2.344640         0.654738
 C        -2.464411        -3.228379         0.094130
 O        -1.989143        -4.173545         0.629870
 H         1.222860         0.294966        -1.641716
 H         1.893704         0.154188         0.014606
 H         1.956110        -1.197133        -1.237207
 H        -2.395059        -0.215898         1.784758
 H        -3.996929         1.347686         0.715045
 H        -2.456155         2.084039         0.708664
 H        -3.087929         1.351757        -0.851954
 H        -3.673604        -2.535778         1.774326
 H        -4.618514        -2.485701         0.282091
 H        -2.138872        -2.838450        -0.870416
