19
Iteration:  3789
 C         1.315951        -0.796096        -0.523736
 C         0.016530        -0.726000         0.147758
 C        -1.135479        -0.493854         0.453129
 C        -2.464382        -0.139032         0.978620
 C        -2.733171         1.290301         0.734477
 O        -3.572439        -0.940666         0.546179
 C        -3.498089        -2.351646         0.405617
 C        -2.580954        -2.903041        -0.625976
 O        -2.008909        -3.934654        -0.367956
 H         1.153196        -1.603305        -1.278726
 H         1.527519         0.057524        -1.219538
 H         1.998619        -1.139381         0.158824
 H        -2.355981        -0.330250         2.065368
 H        -1.875244         1.911674         0.998901
 H        -3.068583         1.411180        -0.297323
 H        -3.499824         1.539801         1.532929
 H        -3.485551        -2.816794         1.438349
 H        -4.603094        -2.544350         0.334679
 H        -2.375288        -2.245818        -1.510494
