19
Iteration:  2257charge 0 multiplicity 1
 C         1.051683        -1.118527        -0.808395
 C        -0.120205        -0.723475        -0.096315
 C        -1.284610        -0.294398         0.133647
 C        -2.558605        -0.002864         0.616269
 C        -3.193543         1.385861         0.481243
 O        -3.451345        -0.963840        -0.018145
 C        -3.484682        -2.292016         0.482245
 C        -2.156943        -3.032165         0.153767
 O        -1.525334        -3.907260         0.730097
 H         2.047335        -0.964625        -0.341955
 H         0.973172        -2.164363        -1.008125
 H         1.007587        -0.520910        -1.658013
 H        -2.514152        -0.146695         1.714131
 H        -4.071574         1.449587         1.084986
 H        -2.458831         2.141786         0.910016
 H        -3.456132         1.574685        -0.513488
 H        -3.712741        -2.223152         1.577985
 H        -4.250997        -2.963221         0.014118
 H        -1.794291        -2.507697        -0.790597
