19
Iteration:  3294charge 0 multiplicity 1
 C         1.059750        -1.109229        -0.596090
 C        -0.137617        -0.600843        -0.000512
 C        -1.256365        -0.403597         0.498540
 C        -2.662551         0.053477         0.902991
 C        -2.977824         1.506544         0.408634
 O        -3.579340        -0.971170         0.503184
 C        -2.952045        -2.260646         0.785908
 C        -2.196549        -2.940253        -0.420063
 O        -1.982952        -4.154861        -0.312091
 H         0.915599        -2.197526        -0.538148
 H         1.073046        -0.762929        -1.660549
 H         1.975538        -0.943755        -0.139181
 H        -2.835012        -0.040275         1.997890
 H        -2.122736         1.965641        -0.051881
 H        -3.757654         1.390721        -0.279272
 H        -3.343971         2.078641         1.306834
 H        -2.287145        -2.449870         1.676324
 H        -3.839395        -2.903913         0.895268
 H        -2.145356        -2.264092        -1.302038
