19
Iteration:  2315
 C         1.218997        -0.673061        -0.726348
 C        -0.212831        -0.513709        -0.421903
 C        -1.220246        -0.419907         0.269985
 C        -2.505149        -0.075637         0.672385
 C        -2.909559         1.345357         0.388337
 O        -3.485464        -0.955371         0.084657
 C        -3.465702        -2.330484         0.562533
 C        -2.343269        -3.240903         0.054204
 O        -1.804664        -4.090011         0.743218
 H         1.585341         0.307175        -0.845085
 H         1.665703        -1.157570         0.154845
 H         1.443413        -1.380018        -1.557539
 H        -2.548714        -0.219849         1.772380
 H        -3.994917         1.333760         0.239064
 H        -2.607220         2.030838         1.104574
 H        -2.448100         1.724811        -0.541191
 H        -3.541558        -2.316818         1.702138
 H        -4.389180        -2.774963         0.096183
 H        -2.103721        -3.122204        -1.030893
