19
Iteration:  4211charge 0 multiplicity 1
 C         1.269464        -1.232123        -0.089175
 C         0.006006        -0.589917         0.338690
 C        -1.082803        -0.078547         0.441991
 C        -2.400187        -0.043761         1.105788
 C        -3.009504         1.335067         0.923588
 O        -3.262061        -0.941459         0.468932
 C        -3.115672        -2.356415         0.534858
 C        -2.485525        -2.909636        -0.761274
 O        -2.568412        -4.032359        -1.143029
 H         2.119781        -0.598268         0.242696
 H         1.358743        -2.173893         0.467077
 H         1.274718        -1.439789        -1.223547
 H        -2.148924        -0.180890         2.106390
 H        -2.869731         1.916571         1.839036
 H        -2.655185         1.730754        -0.066353
 H        -4.098431         1.143366         0.908931
 H        -2.628730        -2.778418         1.401688
 H        -4.186874        -2.574341         0.413968
 H        -1.909691        -2.149274        -1.355079
