19
Iteration:   567
 C         1.601215         0.649672         0.021953
 C         0.254554         0.247978        -0.145969
 C        -0.934330         0.067215        -0.182591
 C        -2.309303        -0.125769         0.181537
 C        -3.033363         0.742300        -0.777963
 O        -2.981058        -1.458887         0.053023
 C        -2.612561        -2.413127         1.074620
 C        -3.437734        -3.696201         0.591901
 O        -3.151773        -4.845756         0.784281
 H         1.908544         0.703368         1.091578
 H         2.323454         0.116390        -0.621417
 H         1.617643         1.822890        -0.199737
 H        -2.338009         0.176917         1.252757
 H        -4.171643         0.697865        -0.839837
 H        -2.821567         1.791436        -0.439180
 H        -2.689793         0.659889        -1.802938
 H        -1.584524        -2.571277         1.219400
 H        -3.171738        -1.955291         1.949118
 H        -4.148559        -3.477436        -0.239464
