19
Iteration:  2676
 C         1.566183        -0.296199        -0.588123
 C         0.120228        -0.179268        -0.123275
 C        -1.048561        -0.208038         0.133196
 C        -2.465616        -0.044164         0.705347
 C        -3.229323         1.032491        -0.168851
 O        -3.317312        -1.196175         0.789952
 C        -2.663018        -2.444883         1.181795
 C        -2.724539        -3.177351        -0.153573
 O        -2.889379        -4.362227        -0.115298
 H         1.688751        -0.751971        -1.534391
 H         2.035544         0.657613        -0.520989
 H         2.114963        -0.825245         0.231521
 H        -2.292476         0.266447         1.749473
 H        -4.126460         1.399333         0.273023
 H        -2.474807         1.862540        -0.272251
 H        -3.357613         0.612896        -1.112508
 H        -1.646230        -2.342195         1.640271
 H        -3.406969        -2.852312         1.862682
 H        -2.758740        -2.500182        -1.022357
