19
Iteration:  2669
 C         1.527454        -0.316453        -0.554871
 C         0.097368        -0.174231        -0.171675
 C        -1.109333        -0.307450         0.208155
 C        -2.455177         0.016429         0.703762
 C        -3.234211         1.056950        -0.163731
 O        -3.240939        -1.143861         0.789488
 C        -2.627623        -2.407110         1.152106
 C        -2.670433        -3.216968        -0.128354
 O        -2.924110        -4.397545        -0.126655
 H         1.910902        -0.559157        -1.600994
 H         2.074251         0.690159        -0.465700
 H         2.079625        -0.980595         0.092611
 H        -2.430471         0.495270         1.711413
 H        -4.281429         1.286643         0.238261
 H        -2.698568         1.994525        -0.170311
 H        -3.443004         0.736134        -1.256006
 H        -1.671183        -2.460212         1.598140
 H        -3.429601        -2.916908         1.737429
 H        -2.670134        -2.654326        -1.104297
