19
Iteration:  2001
 C         1.271250        -0.806162        -0.320695
 C        -0.156728        -0.551591        -0.051384
 C        -1.285682        -0.085284         0.116692
 C        -2.575642         0.282115         0.593720
 C        -3.320872         1.171173        -0.456558
 O        -3.425092        -0.991404         0.792552
 C        -2.849197        -2.308955         1.173405
 C        -2.343269        -3.199458        -0.057642
 O        -2.038207        -4.354217        -0.080020
 H         1.869056        -0.054702         0.084027
 H         1.754548        -1.722192         0.084300
 H         1.472086        -1.012955        -1.396560
 H        -2.557574         0.670803         1.622585
 H        -4.065296         1.912815        -0.053994
 H        -2.459353         1.763313        -0.958618
 H        -3.788088         0.530574        -1.184588
 H        -2.075614        -2.313833         1.968410
 H        -3.835874        -2.761256         1.535824
 H        -2.620546        -2.709357        -1.139513
