19
Iteration:  4227charge 0 multiplicity 1
 C         1.304045        -1.181171        -0.037973
 C         0.020812        -0.598888         0.185516
 C        -0.999578        -0.123301         0.625181
 C        -2.378375         0.009412         1.053860
 C        -3.042477         1.402190         0.965784
 O        -3.315086        -0.983914         0.364380
 C        -3.127949        -2.382801         0.538802
 C        -2.462776        -2.940502        -0.738827
 O        -2.628537        -4.057766        -1.159028
 H         2.130153        -0.473333        -0.130404
 H         1.662767        -1.894104         0.732768
 H         1.330210        -1.660582        -0.994155
 H        -2.557017        -0.558068         2.061971
 H        -2.534956         2.086758         1.712936
 H        -2.721518         1.948914         0.090455
 H        -4.124897         1.354043         1.209018
 H        -2.496336        -2.553164         1.501024
 H        -4.170484        -2.973348         0.607751
 H        -2.038192        -2.022291        -1.309285
