19
Iteration:  2295
 C         1.201078        -0.872549        -0.753152
 C        -0.105188        -0.339809        -0.287679
 C        -1.197736        -0.353789         0.190022
 C        -2.671359        -0.147657         0.699247
 C        -2.898413         1.389390         0.428624
 O        -3.628752        -1.071795         0.012389
 C        -3.376229        -2.360571         0.533617
 C        -2.249939        -3.166418         0.012957
 O        -1.806410        -3.957233         0.794474
 H         2.027322        -0.167580        -0.773694
 H         1.464228        -1.871002        -0.265926
 H         0.983534        -1.275166        -1.838449
 H        -2.786547        -0.395892         1.784451
 H        -3.956769         1.739438         0.403395
 H        -2.433726         1.832984         1.266258
 H        -2.350304         1.840794        -0.478863
 H        -3.082321        -2.303778         1.621083
 H        -4.363041        -2.830933         0.505378
 H        -1.807064        -3.081808        -1.086874
