19
Iteration:  1481
 C         1.797825         0.708937        -0.272959
 C         0.394038         0.448394         0.115105
 C        -0.791984         0.005893         0.132635
 C        -2.299122        -0.267236         0.418599
 C        -3.267126         0.903474        -0.160743
 O        -2.857753        -1.431651        -0.152907
 C        -2.673710        -2.591686         0.707498
 C        -3.274340        -3.794173         0.078437
 O        -3.539634        -4.752158         0.799468
 H         1.854849         1.531779        -1.069667
 H         2.336879         1.003867         0.628642
 H         2.221635        -0.270890        -0.658547
 H        -2.472661        -0.267546         1.530592
 H        -4.234124         0.546425         0.157645
 H        -3.289442         1.832584         0.434279
 H        -3.201482         1.099427        -1.160885
 H        -1.611596        -2.783040         0.804309
 H        -3.097989        -2.368077         1.705452
 H        -3.638127        -3.581132        -1.013393
