19
Iteration:  1930
 C         1.477756        -0.502993        -0.238754
 C         0.062563        -0.416828        -0.135670
 C        -1.151884        -0.201466         0.118907
 C        -2.474026         0.151798         0.550491
 C        -3.414895         0.943667        -0.448687
 O        -3.363912        -1.070760         0.728961
 C        -2.648846        -2.222104         1.093256
 C        -2.770827        -3.214060         0.000696
 O        -2.415486        -4.366675         0.011317
 H         1.968590        -0.963682         0.668966
 H         1.915109        -0.996352        -1.079745
 H         1.882497         0.486971        -0.358354
 H        -2.489455         0.802179         1.410711
 H        -4.462685         0.623873        -0.350103
 H        -3.295282         1.975748        -0.250391
 H        -3.083285         0.775573        -1.521532
 H        -1.557450        -1.980561         1.249865
 H        -3.041190        -2.639558         2.015363
 H        -3.177202        -2.754657        -0.980552
