19
Iteration:  1461charge 0 multiplicity 1
 C         1.713001         0.633867        -0.226741
 C         0.269626         0.428687        -0.101649
 C        -0.852301         0.126039         0.235824
 C        -2.273015        -0.141888         0.457898
 C        -3.184945         0.801526        -0.189008
 O        -2.737419        -1.448313        -0.018727
 C        -2.728011        -2.585826         0.747582
 C        -3.330377        -3.755126         0.021338
 O        -3.480857        -4.766756         0.722326
 H         1.982970         1.668347        -0.647228
 H         2.256979         0.522106         0.722529
 H         2.131516        -0.098894        -0.953496
 H        -2.350206        -0.151794         1.579213
 H        -4.146046         1.027053         0.324233
 H        -2.788654         1.842961        -0.213923
 H        -3.219234         0.352795        -1.166260
 H        -1.733094        -2.890445         1.109403
 H        -3.338673        -2.410225         1.644240
 H        -3.534267        -3.738555        -1.071895
