19
Iteration:  3083charge 0 multiplicity 1
 C         1.140612        -0.939373        -0.822568
 C        -0.111768        -0.594979        -0.188532
 C        -1.194374        -0.474957         0.395385
 C        -2.486126        -0.097869         0.940988
 C        -2.842432         1.241816         0.412448
 O        -3.556479        -0.920833         0.528219
 C        -3.522346        -2.301518         0.749235
 C        -2.489434        -2.960271        -0.215062
 O        -1.689169        -3.879874        -0.032615
 H         2.032982        -1.079018        -0.250223
 H         1.070952        -1.965948        -1.307465
 H         1.482355        -0.203124        -1.577346
 H        -2.416235        -0.280906         2.021146
 H        -3.854099         1.389400         0.078189
 H        -2.574331         1.996743         1.213382
 H        -2.200064         1.502285        -0.401572
 H        -3.438996        -2.623259         1.816475
 H        -4.471208        -2.749247         0.454434
 H        -2.464776        -2.838261        -1.311018
