19
Iteration:  1590charge 0 multiplicity 1
 C         1.618569         0.650643        -0.178775
 C         0.279906         0.361067         0.131591
 C        -0.890919         0.015071         0.138914
 C        -2.342382        -0.250426         0.470867
 C        -3.188101         0.935697        -0.149295
 O        -2.923275        -1.512232         0.027584
 C        -2.208050        -2.765834         0.132145
 C        -3.397231        -3.718556         0.074989
 O        -3.545794        -4.509545         1.023477
 H         2.158023        -0.303185        -0.499399
 H         1.749415         1.302785        -1.028554
 H         2.247724         1.124460         0.616682
 H        -2.497552        -0.120068         1.549215
 H        -2.643290         1.501980        -0.927267
 H        -4.244048         0.635595        -0.464689
 H        -3.356855         1.574848         0.721779
 H        -1.462154        -2.945404        -0.696026
 H        -1.649671        -2.718744         1.117242
 H        -4.131481        -3.665185        -0.707123
