19
Iteration:   817charge 0 multiplicity 1
 C         1.498980        -0.288637         0.090567
 C         0.063643         0.078620        -0.209148
 C        -1.145353         0.145257        -0.184772
 C        -2.533195         0.041851         0.291719
 C        -3.508521         0.862555        -0.491165
 O        -3.062190        -1.308936         0.120444
 C        -2.389327        -2.149446         0.967761
 C        -2.517888        -3.550634         0.308762
 O        -3.060898        -4.538451         0.666982
 H         1.510188        -0.939380         0.937328
 H         1.972331        -0.785794        -0.716603
 H         2.060374         0.649065         0.413968
 H        -2.600758         0.187348         1.363955
 H        -4.550845         0.803662        -0.308568
 H        -3.380330         1.946823        -0.423252
 H        -3.346551         0.442752        -1.533983
 H        -1.377887        -1.915740         1.049480
 H        -2.742956        -2.175296         1.967591
 H        -2.057783        -3.544767        -0.709868
