19
Iteration:  3835
 C         1.160496        -1.078110        -0.541493
 C        -0.138033        -0.716211        -0.035882
 C        -1.107178        -0.337560         0.595573
 C        -2.488254        -0.120826         1.024643
 C        -2.903190         1.360097         0.895333
 O        -3.472301        -0.891118         0.320722
 C        -3.338501        -2.287426         0.525473
 C        -2.391034        -2.845500        -0.535389
 O        -2.025086        -4.020026        -0.507250
 H         1.524135        -2.138584        -0.376013
 H         1.215004        -1.022880        -1.656962
 H         1.926911        -0.442207        -0.072909
 H        -2.762350        -0.431802         2.045180
 H        -2.704078         1.811067         1.915930
 H        -2.232866         1.937708         0.162549
 H        -3.962095         1.502047         0.802905
 H        -2.912086        -2.513622         1.585102
 H        -4.326121        -2.808081         0.759280
 H        -2.180804        -2.202831        -1.422615
