19
Iteration:   933
 C         1.366769        -0.061507        -0.368989
 C         0.045058        -0.063027         0.231694
 C        -1.170042        -0.094934         0.393797
 C        -2.614797         0.010668         0.339992
 C        -2.992095         1.095625        -0.648913
 O        -3.191631        -1.239348        -0.124452
 C        -2.898172        -2.288643         0.867862
 C        -2.585972        -3.595131         0.266514
 O        -2.673199        -4.624783         0.850195
 H         1.526546         0.797147        -1.055808
 H         2.205322        -0.048094         0.347916
 H         1.452037        -0.893795        -1.061171
 H        -2.904616         0.240965         1.371015
 H        -3.770317         1.766394        -0.227406
 H        -2.217211         1.866882        -0.720830
 H        -3.364521         0.703017        -1.561650
 H        -1.962656        -1.948049         1.275761
 H        -3.557297        -2.368822         1.746354
 H        -2.236476        -3.554452        -0.767942
