19
Iteration:  4719
 C         1.816479        -0.405174         0.495859
 C         0.340603        -0.237059         0.493983
 C        -0.897562        -0.305080         0.581694
 C        -2.264596        -0.275248         1.061844
 C        -2.778355         1.127770         1.107113
 O        -3.171264        -1.060785         0.266599
 C        -2.858881        -2.427057         0.100986
 C        -3.550224        -3.073765        -1.003937
 O        -3.281406        -4.222862        -1.288191
 H         2.444214         0.184056         1.247741
 H         2.187476        -1.439456         0.824771
 H         2.347188        -0.159385        -0.457423
 H        -2.361802        -0.718186         2.089748
 H        -1.963121         1.762857         1.417478
 H        -2.899953         1.549867         0.016112
 H        -3.706423         1.340362         1.631626
 H        -1.818523        -2.437912        -0.137726
 H        -3.100544        -3.056254         1.026712
 H        -4.452195        -2.545273        -1.496432
