19
Iteration:   958
 C         1.442841         0.014294        -0.376513
 C         0.048783         0.063608         0.158138
 C        -1.131931        -0.153490         0.313434
 C        -2.633664         0.078677         0.336182
 C        -2.833440         1.249828        -0.664569
 O        -3.377426        -1.142329        -0.022062
 C        -3.012978        -2.303626         0.893399
 C        -2.689389        -3.791386         0.242308
 O        -2.555427        -4.841998         0.872786
 H         1.654508         0.346220        -1.392938
 H         2.058341         0.548332         0.319332
 H         1.814068        -1.085823        -0.364745
 H        -2.863654         0.371302         1.378374
 H        -3.782015         1.630355        -0.664532
 H        -2.239518         2.063417        -0.337166
 H        -2.689594         0.915466        -1.704527
 H        -2.077520        -1.908304         1.356413
 H        -3.740737        -2.451111         1.731475
 H        -2.353694        -3.805982        -0.819458
