19
Iteration:  2809charge 0 multiplicity 1
 C         1.317963        -0.607249        -0.729727
 C         0.021720        -0.284699        -0.070887
 C        -1.086907        -0.172202         0.334654
 C        -2.504669         0.055435         0.763451
 C        -3.056473         1.314637         0.090679
 O        -3.313190        -1.182003         0.555842
 C        -2.876253        -2.402986         1.126427
 C        -2.741458        -3.207764        -0.152202
 O        -2.426539        -4.366353        -0.173027
 H         2.181639        -0.340371        -0.197526
 H         1.384654        -1.675719        -1.034640
 H         1.339850         0.118018        -1.538882
 H        -2.534280         0.176551         1.856251
 H        -4.135299         1.416114         0.258838
 H        -2.567578         2.147021         0.470087
 H        -2.946823         1.196136        -1.003066
 H        -1.949116        -2.465396         1.782160
 H        -3.639959        -2.722121         1.861341
 H        -3.032615        -2.632749        -1.006621
