19
Iteration:  4692charge 0 multiplicity 1
 C         1.745929        -0.515890         0.374109
 C         0.303974        -0.376330         0.612303
 C        -0.912512        -0.268561         0.629609
 C        -2.257006        -0.190726         1.057031
 C        -2.924621         1.126828         0.998920
 O        -3.112635        -1.056968         0.318980
 C        -2.703359        -2.420873         0.152043
 C        -3.402636        -3.016656        -0.977383
 O        -3.357240        -4.191717        -1.292011
 H         2.489665        -0.436612         1.174264
 H         2.181134        -1.385455        -0.011077
 H         1.932322         0.339862        -0.255465
 H        -2.347435        -0.536477         2.059164
 H        -2.443383         1.875515         1.688136
 H        -2.859702         1.541747         0.046952
 H        -4.001860         0.993140         1.218911
 H        -1.585275        -2.370180        -0.112128
 H        -2.910688        -2.992758         1.035803
 H        -4.009453        -2.309480        -1.561100
