19
Iteration:  4270
 C         1.335128        -0.942864        -0.067112
 C         0.045341        -0.603537         0.453770
 C        -1.104902        -0.382824         0.628415
 C        -2.424829        -0.141095         1.099987
 C        -2.873465         1.318062         0.997519
 O        -3.316311        -0.881554         0.232947
 C        -3.021726        -2.248713         0.416725
 C        -2.494305        -2.945990        -0.863327
 O        -2.780522        -4.107273        -1.033241
 H         1.523677        -0.306047        -0.936475
 H         2.114226        -0.756813         0.684861
 H         1.424266        -1.965272        -0.397105
 H        -2.558872        -0.403162         2.165171
 H        -2.131808         2.174962         1.080730
 H        -3.205964         1.494090        -0.042995
 H        -3.816241         1.487007         1.587334
 H        -2.407619        -2.495665         1.328607
 H        -3.959754        -2.904582         0.783352
 H        -1.828288        -2.336898        -1.559208
