19
Iteration:  2457charge 0 multiplicity 1
 C         1.500041        -0.283204        -0.675819
 C         0.143373        -0.375013        -0.135341
 C        -1.103479        -0.262472         0.024418
 C        -2.342986         0.001190         0.581153
 C        -3.165767         1.231541         0.284642
 O        -3.376387        -1.000987         0.240710
 C        -3.187092        -2.259153         0.870860
 C        -2.542111        -3.381686         0.036483
 O        -2.559651        -4.574638         0.392275
 H         1.999435        -1.210158        -0.584497
 H         1.558766         0.020741        -1.713625
 H         1.987369         0.539255        -0.088250
 H        -2.205595        -0.079155         1.680603
 H        -4.179538         0.931666         0.520650
 H        -2.812535         1.934983         0.973141
 H        -3.104540         1.609973        -0.764310
 H        -2.463602        -2.194324         1.697870
 H        -4.190639        -2.555172         1.182212
 H        -2.090070        -3.061859        -0.946481
