19
Iteration:  4408charge 0 multiplicity 1
 C         1.664717        -0.387463         0.183159
 C         0.222098        -0.590126         0.479850
 C        -0.995812        -0.421909         0.514638
 C        -2.301139        -0.228002         0.998782
 C        -2.606384         1.333093         1.053975
 O        -3.292622        -0.954638         0.267269
 C        -3.336136        -2.389199         0.338380
 C        -3.135614        -3.081741        -1.023186
 O        -2.875239        -4.263602        -1.004990
 H         2.324379        -0.934963         0.893571
 H         1.933489        -0.682567        -0.816758
 H         1.777164         0.720019         0.177320
 H        -2.424122        -0.620260         2.023948
 H        -1.717386         1.777135         1.535647
 H        -2.667981         1.624766         0.019690
 H        -3.550294         1.526754         1.493363
 H        -2.469613        -2.749611         1.059713
 H        -4.384283        -2.741073         0.650697
 H        -3.141908        -2.455171        -1.901741
