19
Iteration:  4501charge 0 multiplicity 1
 C         1.638511        -0.568508         0.132857
 C         0.289552        -0.382269         0.497481
 C        -0.864912        -0.114986         0.670602
 C        -2.256737        -0.187722         1.010098
 C        -2.869862         1.209885         1.050521
 O        -3.208505        -1.017149         0.210259
 C        -3.102242        -2.416821         0.424869
 C        -3.005809        -3.097780        -1.007648
 O        -3.185947        -4.284800        -1.139643
 H         2.318286         0.261910        -0.034629
 H         2.112192        -1.076233         1.055562
 H         1.716300        -1.322923        -0.668774
 H        -2.090301        -0.652623         2.041741
 H        -2.636154         1.901757         1.836552
 H        -2.721283         1.818931         0.087211
 H        -4.022817         1.185575         1.033436
 H        -2.158946        -2.554766         1.012842
 H        -4.024544        -2.821222         0.866262
 H        -2.991198        -2.414991        -1.831033
