19
Iteration:  3090charge 0 multiplicity 1
 C         1.148214        -0.979176        -0.784840
 C        -0.065005        -0.524793        -0.192681
 C        -1.152456        -0.588330         0.338468
 C        -2.510753        -0.134058         0.876644
 C        -2.866628         1.275122         0.456878
 O        -3.578171        -0.933335         0.562310
 C        -3.507920        -2.274071         0.751590
 C        -2.442548        -2.940852        -0.222784
 O        -1.710301        -3.866928        -0.019819
 H         2.089085        -0.894428        -0.201171
 H         0.985064        -1.929684        -1.207334
 H         1.340098        -0.435599        -1.770545
 H        -2.482698        -0.063965         2.003816
 H        -3.940905         1.334169         0.137940
 H        -2.698848         1.928652         1.283349
 H        -2.272269         1.627027        -0.473969
 H        -3.335892        -2.543187         1.809822
 H        -4.442876        -2.789721         0.287664
 H        -2.690549        -2.626815        -1.298479
