19
Iteration:  2340charge 0 multiplicity 1
 C         1.358835        -0.423448        -0.778902
 C        -0.097240        -0.785312        -0.303272
 C        -1.126109        -0.416291         0.189594
 C        -2.459724        -0.067257         0.757950
 C        -3.014353         1.319176         0.321854
 O        -3.418756        -0.947029         0.140522
 C        -3.613725        -2.272328         0.617584
 C        -2.447775        -3.234524         0.104469
 O        -1.875943        -4.213172         0.651450
 H         1.116957         0.496097        -1.350414
 H         1.944968        -0.141911         0.145534
 H         1.988203        -1.228372        -1.305091
 H        -2.439043        -0.206039         1.876564
 H        -4.113274         1.300533         0.355867
 H        -2.555061         2.249675         0.684488
 H        -2.767709         1.309664        -0.799934
 H        -3.860791        -2.203268         1.702360
 H        -4.474795        -2.691167         0.035071
 H        -2.154698        -2.975413        -0.991803
