19
Iteration:  2011
 C         1.226748        -0.837690        -0.367277
 C        -0.205795        -0.645572        -0.008379
 C        -1.257440        -0.129200         0.181015
 C        -2.640744         0.241536         0.607301
 C        -3.244865         1.144305        -0.401724
 O        -3.445332        -1.007687         0.719346
 C        -2.822260        -2.282609         1.105116
 C        -2.331645        -3.092702        -0.115669
 O        -2.005955        -4.285051         0.002815
 H         1.726352         0.077142        -0.274761
 H         1.622619        -1.634760         0.313309
 H         1.355889        -1.042237        -1.460577
 H        -2.596798         0.845763         1.538421
 H        -3.976371         1.841140         0.096623
 H        -2.518561         1.696307        -1.133329
 H        -3.831324         0.487094        -1.031444
 H        -1.999873        -2.211912         1.870083
 H        -3.652491        -2.884936         1.635049
 H        -2.437786        -2.473305        -1.178237
