19
Iteration:  3724charge 0 multiplicity 1
 C         1.385835        -0.656443        -0.310578
 C        -0.038261        -0.717773        -0.166097
 C        -1.194996        -0.699883         0.274366
 C        -2.443029        -0.232582         0.991568
 C        -2.629117         1.268741         0.761168
 O        -3.623685        -0.931125         0.347493
 C        -3.500298        -2.311697         0.660706
 C        -2.658162        -2.890187        -0.477530
 O        -2.014433        -3.903085        -0.378731
 H         1.574352         0.069436        -1.190966
 H         1.968616        -0.287917         0.538940
 H         1.664468        -1.668691        -0.554029
 H        -2.505602        -0.375826         2.080198
 H        -1.777795         1.888374         0.486088
 H        -3.431666         1.265995         0.032691
 H        -3.093964         1.810357         1.659460
 H        -3.028379        -2.665244         1.589646
 H        -4.407602        -2.791335         0.331866
 H        -2.664202        -2.222068        -1.376885
