19
Iteration:  1483
 C         1.785474         0.710696        -0.271503
 C         0.393975         0.435599         0.130742
 C        -0.784860        -0.002115         0.127836
 C        -2.299724        -0.254272         0.395233
 C        -3.265722         0.911155        -0.138934
 O        -2.862059        -1.433617        -0.164076
 C        -2.666683        -2.578505         0.695981
 C        -3.276041        -3.802667         0.106906
 O        -3.547153        -4.756969         0.793422
 H         1.853191         1.506454        -1.093253
 H         2.371634         1.075137         0.600237
 H         2.238065        -0.236158        -0.628143
 H        -2.427570        -0.294235         1.517899
 H        -4.298687         0.556543         0.092316
 H        -3.343487         1.787551         0.514354
 H        -3.132350         1.097458        -1.196958
 H        -1.592026        -2.771385         0.774195
 H        -3.020736        -2.334272         1.693756
 H        -3.602361        -3.611069        -0.972670
