19
Iteration:  3370charge 0 multiplicity 1
 C         1.453162        -0.835203        -0.481695
 C         0.030818        -0.691054        -0.039127
 C        -1.084255        -0.411302         0.381899
 C        -2.465002        -0.056626         0.858747
 C        -3.072152         1.212146         0.338245
 O        -3.536934        -0.964671         0.670219
 C        -3.322710        -2.304136         0.795178
 C        -2.803041        -3.045066        -0.501429
 O        -1.926986        -3.902915        -0.330331
 H         2.220039        -0.545354         0.262693
 H         1.564955        -1.967131        -0.798847
 H         1.633908        -0.175181        -1.372527
 H        -2.378511        -0.044148         1.965339
 H        -2.242901         1.809542        -0.086139
 H        -3.875090         1.016311        -0.360663
 H        -3.355993         1.884542         1.228961
 H        -2.488852        -2.448568         1.519662
 H        -4.158722        -2.848114         1.278713
 H        -3.179431        -2.422900        -1.381825
