19
Iteration:  4385
 C         1.698097        -0.395974         0.085219
 C         0.269672        -0.539904         0.505251
 C        -0.942662        -0.615563         0.630189
 C        -2.307837        -0.187248         1.006768
 C        -2.659378         1.317431         0.980813
 O        -3.426782        -0.839967         0.306933
 C        -3.331958        -2.308264         0.369200
 C        -3.060765        -3.134731        -0.926747
 O        -2.834479        -4.316685        -1.116567
 H         2.247843        -1.305894         0.362396
 H         1.815331        -0.175721        -0.966669
 H         2.048451         0.512682         0.586125
 H        -2.461116        -0.498803         2.071732
 H        -2.113388         1.681429         1.835374
 H        -2.322622         1.761796         0.043803
 H        -3.717916         1.395006         1.011631
 H        -2.633837        -2.457875         1.301000
 H        -4.347550        -2.811187         0.524266
 H        -3.181590        -2.435462        -1.745020
