19
Iteration:   120charge 0 multiplicity 1
 C         1.674622         0.435935        -0.184146
 C         0.219434         0.196196        -0.160442
 C        -0.954816        -0.018157        -0.000454
 C        -2.379831        -0.087459         0.031551
 C        -3.110292         0.639308        -1.168405
 O        -2.814933        -1.538654         0.060355
 C        -2.607469        -2.275690         1.202201
 C        -3.536706        -3.478623         0.926714
 O        -3.107076        -4.621133         0.901413
 H         1.963215         1.055907        -1.054256
 H         1.992878         0.929879         0.766423
 H         2.232759        -0.546690        -0.143850
 H        -2.793032         0.284562         1.039126
 H        -3.663375         1.530310        -0.810616
 H        -2.461767         0.861061        -1.977934
 H        -3.893418        -0.035726        -1.535406
 H        -1.585223        -2.727633         1.297868
 H        -2.886135        -1.670974         2.143583
 H        -4.664877        -3.293668         1.057547
