19
Iteration:    82
 C         1.698999         0.236053        -0.175718
 C         0.300281         0.417135        -0.119828
 C        -0.919304         0.242781        -0.168795
 C        -2.339902        -0.149667         0.004486
 C        -3.110172         0.571012        -1.025265
 O        -2.875833        -1.542465        -0.095211
 C        -2.761561        -2.160057         1.170140
 C        -3.570739        -3.584615         1.002970
 O        -3.035978        -4.680151         0.992692
 H         2.312356         1.162642        -0.224160
 H         1.959794        -0.201821         0.801285
 H         1.990117        -0.394014        -1.028437
 H        -2.552974         0.232338         1.055845
 H        -4.189175         0.577714        -0.716961
 H        -2.769476         1.647851        -1.260657
 H        -2.994531        -0.120683        -1.913218
 H        -1.699552        -2.310589         1.436019
 H        -3.244748        -1.626388         2.026472
 H        -4.645161        -3.502771         1.138532
