19
Iteration:  4653
 C         1.639279        -0.602065         0.209626
 C         0.241416        -0.431104         0.523509
 C        -0.878307        -0.218771         0.966745
 C        -2.360257        -0.095634         1.178799
 C        -3.037944         1.189644         0.878111
 O        -2.982122        -1.114597         0.280407
 C        -2.593274        -2.441723         0.205712
 C        -3.177570        -3.001307        -1.039281
 O        -3.455097        -4.163453        -1.256186
 H         1.995419        -1.400173         0.919267
 H         1.685365        -0.903525        -0.910872
 H         2.275135         0.312602         0.399253
 H        -2.611062        -0.312748         2.296708
 H        -2.796741         1.856818         1.701009
 H        -2.697324         1.762841        -0.078375
 H        -4.130680         0.995632         0.891199
 H        -1.549370        -2.443059        -0.110642
 H        -2.628744        -3.224596         1.048189
 H        -3.419336        -2.188214        -1.741282
