19
Iteration:   102
 C         1.721188         0.310696        -0.142015
 C         0.233015         0.496409        -0.245495
 C        -0.855161        -0.008616         0.001953
 C        -2.365987        -0.121766         0.067608
 C        -3.156598         0.547712        -1.098304
 O        -2.834767        -1.475216        -0.061735
 C        -2.740643        -2.327509         1.139626
 C        -3.584808        -3.516924         1.081112
 O        -3.043168        -4.594758         0.917209
 H         2.352214         1.035157        -0.718949
 H         2.101349         0.257748         0.869294
 H         1.963616        -0.613191        -0.555335
 H        -2.729235         0.296863         0.955881
 H        -3.971237         1.211862        -0.727992
 H        -2.480115         1.114992        -1.728460
 H        -3.579417        -0.198142        -1.738177
 H        -1.696483        -2.559064         1.325345
 H        -3.110203        -1.769062         1.985293
 H        -4.666326        -3.440327         0.926447
