19
Iteration:  2294
 C         1.206673        -0.884352        -0.760265
 C        -0.096934        -0.336534        -0.272982
 C        -1.207405        -0.347372         0.184815
 C        -2.677238        -0.148612         0.696498
 C        -2.902440         1.385817         0.432498
 O        -3.633748        -1.071353         0.008594
 C        -3.371604        -2.358642         0.531375
 C        -2.243025        -3.168090         0.022508
 O        -1.803368        -3.950069         0.790122
 H         2.023621        -0.201337        -0.763999
 H         1.431724        -1.896156        -0.304196
 H         0.957646        -1.266910        -1.830290
 H        -2.785987        -0.398523         1.779811
 H        -3.950624         1.743619         0.414725
 H        -2.407777         1.829505         1.240411
 H        -2.358122         1.829628        -0.446002
 H        -3.078732        -2.273365         1.634522
 H        -4.360393        -2.854334         0.493049
 H        -1.814318        -3.069756        -1.080785
