19
Iteration:  2455
 C         1.479681        -0.273319        -0.661557
 C         0.138697        -0.391722        -0.160690
 C        -1.094203        -0.246544         0.026995
 C        -2.345869         0.005190         0.587700
 C        -3.146053         1.227899         0.279398
 O        -3.375605        -0.988001         0.245464
 C        -3.199669        -2.275483         0.874288
 C        -2.543088        -3.385251         0.018156
 O        -2.546029        -4.584855         0.399165
 H         2.067022        -1.227353        -0.646489
 H         1.552516         0.044547        -1.701062
 H         1.928497         0.496199        -0.020084
 H        -2.191211        -0.063225         1.698324
 H        -4.172201         0.905504         0.554112
 H        -2.805403         1.955414         0.949970
 H        -3.088463         1.612157        -0.777316
 H        -2.555756        -2.130854         1.726869
 H        -4.216160        -2.487610         1.151578
 H        -2.099701        -3.088438        -0.899987
