19
Iteration:   160charge 0 multiplicity 1
 C         1.496446         0.542892        -0.265954
 C         0.218244        -0.022956         0.100156
 C        -0.982341        -0.105911         0.133203
 C        -2.393543        -0.101829         0.040275
 C        -3.040973         0.623140        -1.156923
 O        -2.848881        -1.401687         0.040237
 C        -2.452631        -2.298050         1.040841
 C        -3.416268        -3.445858         0.869450
 O        -3.192005        -4.641979         0.952296
 H         1.719171         0.329158        -1.293372
 H         1.440206         1.638805        -0.230606
 H         2.364835         0.120083         0.322262
 H        -2.707628         0.455880         0.896409
 H        -2.452660         1.418815        -1.588288
 H        -3.109318        -0.186820        -1.977405
 H        -4.107947         0.922893        -0.857288
 H        -1.391489        -2.540790         0.941556
 H        -2.649460        -1.987949         2.053038
 H        -4.455188        -3.003777         0.669014
