19
Iteration:  3386
 C         1.380615        -0.814164        -0.442053
 C         0.034384        -0.625625         0.018685
 C        -1.151473        -0.432144         0.213021
 C        -2.447915        -0.120950         0.867711
 C        -2.909903         1.342386         0.374843
 O        -3.644946        -0.990528         0.638504
 C        -3.215568        -2.419364         0.859390
 C        -2.777898        -2.996711        -0.403762
 O        -1.978655        -3.893188        -0.394179
 H         2.055917        -0.205855         0.201736
 H         1.836665        -1.754228        -0.460336
 H         1.704862        -0.544906        -1.461263
 H        -2.154425        -0.017465         1.936337
 H        -2.087060         1.882969        -0.091937
 H        -3.601669         1.043260        -0.478135
 H        -3.546572         1.716597         1.121262
 H        -2.468667        -2.574989         1.688063
 H        -4.186025        -2.899886         1.061563
 H        -3.369271        -2.901059        -1.365824
