19
Iteration:  3380
 C         1.427230        -0.830476        -0.459899
 C         0.061173        -0.653795        -0.015253
 C        -1.111048        -0.407513         0.279918
 C        -2.462366        -0.100462         0.876106
 C        -2.976818         1.248105         0.346853
 O        -3.611514        -0.996399         0.659231
 C        -3.257539        -2.351167         0.816079
 C        -2.796281        -3.010815        -0.421641
 O        -1.969896        -3.878490        -0.366845
 H         2.061001        -0.350684         0.291259
 H         1.790994        -1.933605        -0.573794
 H         1.497791        -0.299902        -1.457032
 H        -2.309582         0.019038         1.965440
 H        -2.176572         1.861213        -0.098784
 H        -3.750794         1.204082        -0.401286
 H        -3.491679         1.801793         1.234293
 H        -2.441846        -2.534814         1.502877
 H        -4.191825        -2.837301         1.175057
 H        -3.141104        -2.854201        -1.466894
