19
Iteration:  1785
 C         1.561295         0.048371        -0.236051
 C         0.059703        -0.043940        -0.143253
 C        -1.081295        -0.028679         0.217145
 C        -2.525976         0.032441         0.426541
 C        -3.190880         1.246668        -0.383886
 O        -3.055805        -1.266783         0.239739
 C        -2.404817        -2.403347         0.958022
 C        -3.044443        -3.595801         0.248659
 O        -3.007429        -4.826852         0.353621
 H         1.957579         0.656663        -1.101339
 H         2.041935         0.507238         0.633025
 H         2.158142        -0.870589        -0.384804
 H        -2.680694         0.212547         1.536151
 H        -4.258059         1.045578        -0.610086
 H        -3.214874         2.117858         0.378227
 H        -2.677165         1.499392        -1.283059
 H        -1.258606        -2.499153         0.789017
 H        -2.641428        -2.297816         2.020048
 H        -3.762046        -3.178272        -0.591769
