19
Iteration:  4697
 C         1.748066        -0.521536         0.410047
 C         0.285125        -0.336746         0.614302
 C        -0.913843        -0.274469         0.611221
 C        -2.235591        -0.229356         1.043778
 C        -2.890350         1.137116         1.021542
 O        -3.125925        -1.055866         0.315753
 C        -2.702074        -2.429820         0.133180
 C        -3.465482        -3.014953        -0.989252
 O        -3.325714        -4.188163        -1.276081
 H         2.429221        -0.177351         1.241262
 H         2.165897        -1.479712        -0.084986
 H         1.896967         0.303137        -0.351428
 H        -2.163014        -0.615449         2.135768
 H        -2.445931         1.916852         1.608080
 H        -2.875162         1.591469        -0.053102
 H        -3.940814         0.989340         1.290583
 H        -1.669844        -2.572960        -0.143202
 H        -2.933278        -2.964070         1.109404
 H        -4.023191        -2.255849        -1.648915
