19
Iteration:   581
 C         1.664409         0.716331        -0.010667
 C         0.277268         0.273254        -0.198927
 C        -0.909223         0.000167        -0.121967
 C        -2.331567        -0.112609         0.171176
 C        -3.038560         0.888333        -0.798463
 O        -2.939958        -1.386312         0.031003
 C        -2.797069        -2.399412         1.108996
 C        -3.401070        -3.763555         0.642359
 O        -3.120159        -4.992512         0.740738
 H         1.843725         0.804961         1.124113
 H         2.382613        -0.115485        -0.336025
 H         1.913641         1.615543        -0.606867
 H        -2.574782         0.225711         1.173689
 H        -4.027208         0.471993        -0.936731
 H        -3.096164         1.931304        -0.409986
 H        -2.461199         0.774373        -1.791052
 H        -1.729747        -2.477348         1.377750
 H        -3.300604        -2.201007         2.110469
 H        -4.414564        -3.442118         0.359842
