19
Iteration:  3779charge 0 multiplicity 1
 C         1.304634        -0.794989        -0.519248
 C         0.039289        -0.696783         0.130202
 C        -1.110442        -0.466415         0.410323
 C        -2.449192        -0.231828         1.020273
 C        -2.693209         1.279022         0.720133
 O        -3.628936        -0.960287         0.535213
 C        -3.555964        -2.347098         0.442573
 C        -2.616961        -2.880815        -0.599447
 O        -2.006470        -3.915018        -0.355617
 H         1.338067        -1.462209        -1.406741
 H         1.650514         0.219744        -0.646171
 H         2.126861        -1.103275         0.034336
 H        -2.492429        -0.351293         2.085851
 H        -1.702855         1.734496         0.636283
 H        -3.162694         1.511277        -0.258060
 H        -3.295214         1.822931         1.485142
 H        -3.198204        -2.911694         1.372439
 H        -4.522479        -2.705283         0.017025
 H        -2.440887        -2.281851        -1.535033
