19
Iteration:   665charge 0 multiplicity 1
 C         1.506459         0.421335        -0.319135
 C         0.192764         0.115612         0.119208
 C        -0.974587        -0.026361         0.443216
 C        -2.473697        -0.087622         0.178745
 C        -3.135039         0.953704        -0.776508
 O        -2.729918        -1.423379        -0.063101
 C        -2.793576        -2.368653         1.031191
 C        -3.339380        -3.676191         0.479562
 O        -2.881965        -4.735940         0.733962
 H         1.382188         1.227036        -1.020107
 H         2.223778         0.690459         0.430313
 H         1.954039        -0.436166        -0.921823
 H        -3.044489         0.238259         1.110088
 H        -4.187765         1.055993        -0.463601
 H        -2.574983         1.912389        -0.904095
 H        -3.202642         0.743232        -1.863588
 H        -1.768951        -2.589766         1.469796
 H        -3.485918        -1.934291         1.772885
 H        -4.140014        -3.577989        -0.278091
