19
Iteration:  1665
 C         1.582878         0.383349        -0.150542
 C         0.121016         0.171746        -0.105317
 C        -1.019661        -0.045702         0.262387
 C        -2.399868        -0.234634         0.464766
 C        -3.256795         0.994164        -0.019671
 O        -2.849802        -1.392592        -0.175538
 C        -2.227487        -2.613062         0.249673
 C        -3.375283        -3.536733         0.204688
 O        -3.262995        -4.518719         0.942790
 H         2.080970         0.298439         0.815988
 H         2.059672        -0.391537        -0.658336
 H         1.999780         1.256023        -0.653746
 H        -2.587359        -0.426995         1.540140
 H        -3.142868         1.864348         0.615574
 H        -2.795803         1.440526        -1.004532
 H        -4.184728         0.518756        -0.281866
 H        -1.415297        -2.758628        -0.432364
 H        -1.888404        -2.514222         1.287304
 H        -4.284711        -3.359794        -0.443921
