19
Iteration:  1938
 C         1.546602        -0.561623        -0.239306
 C         0.020604        -0.335848        -0.149311
 C        -1.137102        -0.192743         0.053712
 C        -2.516782         0.113972         0.585873
 C        -3.410341         0.843104        -0.406550
 O        -3.373175        -1.046301         0.709997
 C        -2.695688        -2.196647         1.103399
 C        -2.766800        -3.158144        -0.073584
 O        -2.380747        -4.323833         0.052630
 H         1.924141        -0.876770         0.834744
 H         1.786305        -1.303026        -1.033410
 H         2.079799         0.404013        -0.453010
 H        -2.274447         0.607978         1.593350
 H        -4.428470         0.457860        -0.282921
 H        -3.277934         1.899780        -0.235729
 H        -3.099955         0.725619        -1.423024
 H        -1.680762        -1.922052         1.329213
 H        -3.067762        -2.740727         1.961125
 H        -3.236789        -2.682316        -1.054337
