19
Iteration:  4062
 C         1.250895        -1.248071        -0.398560
 C        -0.020462        -0.778813         0.244855
 C        -1.166405        -0.553061         0.555009
 C        -2.423378        -0.227844         1.181967
 C        -2.793147         1.201043         0.595947
 O        -3.609953        -0.925030         0.615412
 C        -3.499623        -2.330830         0.569277
 C        -2.619424        -2.593593        -0.666564
 O        -1.840130        -3.532248        -0.804005
 H         0.939095        -2.045522        -1.156484
 H         1.751066        -0.415262        -1.023612
 H         1.917141        -1.604159         0.459158
 H        -2.472404        -0.225198         2.285735
 H        -2.058198         1.873572         1.143055
 H        -2.401246         1.178392        -0.444005
 H        -3.864286         1.345872         0.719229
 H        -3.076021        -2.819436         1.426454
 H        -4.443720        -2.661122         0.171752
 H        -2.671969        -2.115554        -1.637233
