19
Iteration:  1044
 C         1.680360         0.063862        -0.124075
 C         0.203557        -0.080666         0.079654
 C        -0.987278        -0.097370        -0.019408
 C        -2.462288         0.000241         0.153614
 C        -3.277844         1.036432        -0.563023
 O        -3.152944        -1.358730         0.093085
 C        -3.119430        -2.288672         1.132290
 C        -3.110878        -3.582642         0.336377
 O        -2.418025        -4.530158         0.568319
 H         2.065167        -0.966870        -0.033717
 H         1.836340         0.415750        -1.115286
 H         2.261141         0.644356         0.656224
 H        -2.607608         0.281430         1.183655
 H        -4.291172         0.751322        -0.360843
 H        -3.155386         1.975836        -0.032696
 H        -3.006605         1.092016        -1.663996
 H        -2.251493        -2.201217         1.732525
 H        -4.064728        -2.250688         1.705778
 H        -3.603657        -3.361340        -0.673036
