19
Iteration:   922charge 0 multiplicity 1
 C         1.396320        -0.072125        -0.401678
 C         0.084438        -0.144755         0.219931
 C        -1.137582        -0.080104         0.427458
 C        -2.694773        -0.021562         0.359864
 C        -3.127144         1.093093        -0.639811
 O        -3.092626        -1.302954        -0.110167
 C        -2.794367        -2.219640         0.920094
 C        -2.567353        -3.514848         0.166001
 O        -2.735814        -4.535795         0.866533
 H         1.678422         0.949211        -0.723718
 H         2.091063        -0.386470         0.406337
 H         1.533065        -0.868764        -1.117041
 H        -3.248355         0.178558         1.290466
 H        -4.000150         1.617186        -0.212135
 H        -2.259476         1.629571        -1.047953
 H        -3.449091         0.580931        -1.510442
 H        -1.932282        -2.069953         1.552124
 H        -3.734003        -2.425964         1.447872
 H        -2.190771        -3.486989        -0.866744
