19
Iteration:  2129charge 0 multiplicity 1
 C         1.009637        -1.358466        -0.577402
 C        -0.285814        -0.809895        -0.272654
 C        -1.287148        -0.475717         0.234735
 C        -2.577957         0.070635         0.689591
 C        -3.313077         1.321328         0.175532
 O        -3.613756        -0.923373         0.300919
 C        -3.161131        -2.194401         0.701997
 C        -2.142285        -2.895307        -0.136500
 O        -1.397896        -3.665486         0.500335
 H         0.966032        -2.164959        -1.297485
 H         1.759996        -0.566233        -0.850574
 H         1.515072        -1.921535         0.247865
 H        -2.594644         0.081507         1.786183
 H        -4.336978         0.972855         0.039334
 H        -3.248549         2.190232         0.924105
 H        -2.860735         1.640054        -0.724442
 H        -2.632058        -2.096273         1.649015
 H        -3.915975        -2.907473         0.908572
 H        -2.198128        -2.884201        -1.357420
