19
Iteration:  1095
 C         1.498838        -0.138216         0.020461
 C         0.115268         0.071066        -0.193128
 C        -1.035547        -0.023390         0.299970
 C        -2.567134         0.037821         0.309559
 C        -3.231200         1.159923        -0.606388
 O        -3.168997        -1.253868        -0.091995
 C        -2.717987        -2.295640         0.893729
 C        -3.164437        -3.676010         0.489979
 O        -2.398487        -4.663484         0.533527
 H         1.652493        -0.374855         1.070771
 H         1.926021        -0.834159        -0.748720
 H         2.050959         0.777052        -0.102899
 H        -2.976070         0.167268         1.354637
 H        -4.050271         1.688803        -0.012868
 H        -2.530716         2.003775        -0.838911
 H        -3.692215         0.565878        -1.408056
 H        -1.616526        -2.338507         0.768228
 H        -3.063770        -2.024296         1.918397
 H        -4.234822        -3.803882         0.281427
