19
Iteration:  1072charge 0 multiplicity 1
 C         1.581443        -0.056992        -0.018083
 C         0.142008         0.077172        -0.088960
 C        -1.060759         0.066507        -0.017095
 C        -2.512055         0.011631         0.338973
 C        -3.165728         1.006979        -0.539439
 O        -3.139620        -1.213168         0.018049
 C        -2.964154        -2.309189         0.933318
 C        -3.202449        -3.723004         0.409429
 O        -2.357144        -4.607640         0.562404
 H         1.715699        -0.846700         0.746658
 H         1.932475        -0.374579        -1.052085
 H         2.172867         0.741524         0.355873
 H        -2.692237         0.238248         1.432201
 H        -4.177243         1.403892        -0.205698
 H        -2.508429         1.904389        -0.534789
 H        -3.254328         0.452443        -1.454506
 H        -1.906328        -2.279402         1.342838
 H        -3.766008        -2.265831         1.714400
 H        -4.226703        -3.935222         0.068000
