19
Iteration:  1844charge 0 multiplicity 1
 C         1.600365        -0.177635        -0.464386
 C         0.144593         0.073924         0.076600
 C        -0.960836        -0.106255         0.560808
 C        -2.444829         0.107237         0.606470
 C        -3.233064         0.835513        -0.542957
 O        -3.352238        -1.143609         0.478553
 C        -2.594645        -2.287773         0.871098
 C        -3.031799        -3.457898        -0.060337
 O        -2.701613        -4.578354         0.286160
 H         1.392030        -0.927700        -1.234059
 H         1.948510         0.754747        -0.918060
 H         2.065137        -0.635532         0.384711
 H        -2.692077         0.447772         1.644106
 H        -4.206233         1.025948         0.049003
 H        -2.900226         1.792925        -0.915594
 H        -3.448864         0.128622        -1.492227
 H        -1.489308        -2.251920         0.706990
 H        -2.718132        -2.599535         1.951559
 H        -3.700460        -3.240902        -1.035748
