19
Iteration:  3233
 C         0.950899        -1.327767        -0.627018
 C        -0.061870        -0.559233        -0.014284
 C        -1.139522        -0.076757         0.388514
 C        -2.533881         0.146008         0.859988
 C        -3.249208         1.447665         0.591433
 O        -3.324315        -0.930956         0.397242
 C        -3.103888        -2.322601         0.747420
 C        -2.326610        -3.043097        -0.269476
 O        -1.848900        -4.173638        -0.286889
 H         0.660967        -1.428576        -1.693132
 H         1.922736        -0.869113        -0.727677
 H         1.251122        -2.291933        -0.058272
 H        -2.451837         0.168680         1.959379
 H        -2.767974         2.352959         1.032872
 H        -3.381277         1.641736        -0.538608
 H        -4.259428         1.286186         0.960910
 H        -3.020005        -2.372735         1.812499
 H        -4.122391        -2.693759         0.512577
 H        -2.313030        -2.484665        -1.231554
