19
Iteration:  3969charge 0 multiplicity 1
 C         1.169774        -1.475563        -0.479834
 C        -0.122531        -0.810690         0.145222
 C        -1.215482        -0.363137         0.551414
 C        -2.565110        -0.002226         1.050197
 C        -2.995083         1.498597         0.882885
 O        -3.589081        -0.919570         0.466430
 C        -3.205352        -2.330811         0.518829
 C        -2.387121        -2.738606        -0.667254
 O        -1.787135        -3.801657        -0.699299
 H         1.702108        -0.686739        -0.963672
 H         1.697718        -1.993471         0.281310
 H         0.691080        -2.250264        -1.036523
 H        -2.503914        -0.350587         2.142544
 H        -1.981734         1.890072         0.980757
 H        -3.426265         1.921150        -0.011726
 H        -3.596064         1.718163         1.834923
 H        -2.799144        -2.319060         1.565070
 H        -4.214777        -2.800944         0.385565
 H        -2.533879        -2.105846        -1.572480
