19
Iteration:  4672charge 0 multiplicity 1
 C         1.796405        -0.564262         0.259937
 C         0.312981        -0.478801         0.550607
 C        -0.868072        -0.226461         0.856709
 C        -2.354626        -0.205150         1.111007
 C        -3.066327         1.249401         0.946914
 O        -3.159908        -1.074905         0.293378
 C        -2.501321        -2.426484         0.231741
 C        -3.313337        -3.033582        -1.000487
 O        -3.432704        -4.193900        -1.323017
 H         2.436096        -0.906544         1.125370
 H         2.034230        -1.223127        -0.581363
 H         2.150977         0.466021         0.002854
 H        -2.362724        -0.582347         2.156792
 H        -2.816157         2.091845         1.634281
 H        -2.827269         1.761016         0.006321
 H        -4.194264         1.117957         0.949765
 H        -1.407069        -2.471571         0.035469
 H        -2.816656        -2.783142         1.232081
 H        -3.661725        -2.155821        -1.687862
