19
Iteration:  4213
 C         1.276903        -1.221790        -0.070498
 C         0.010927        -0.598383         0.314260
 C        -1.076158        -0.074699         0.462368
 C        -2.397766        -0.038585         1.097275
 C        -3.008909         1.329749         0.930455
 O        -3.265088        -0.946101         0.450137
 C        -3.101649        -2.356292         0.521667
 C        -2.488573        -2.915994        -0.733747
 O        -2.577089        -4.032906        -1.151355
 H         2.100659        -0.553313         0.171349
 H         1.343915        -2.136085         0.457170
 H         1.216486        -1.470855        -1.174531
 H        -2.143604        -0.086513         2.163955
 H        -2.798267         1.897258         1.902391
 H        -2.703821         1.750620        -0.059262
 H        -4.098245         1.224179         0.887800
 H        -2.663681        -2.816212         1.451601
 H        -4.257932        -2.683996         0.436496
 H        -1.947223        -2.139006        -1.397127
