19
Iteration:  3305charge 0 multiplicity 1
 C         1.102341        -1.119026        -0.601304
 C        -0.141017        -0.536782         0.059627
 C        -1.279248        -0.335763         0.486995
 C        -2.552168         0.059061         0.907559
 C        -2.941771         1.450969         0.403787
 O        -3.637369        -1.015205         0.518185
 C        -3.048714        -2.319901         0.732322
 C        -2.328359        -2.983499        -0.337282
 O        -1.935602        -4.123844        -0.374478
 H         1.223016        -2.214406        -0.513305
 H         1.061681        -0.930022        -1.700624
 H         1.897698        -0.571370        -0.238323
 H        -2.405159         0.187267         2.006875
 H        -2.099672         1.875776        -0.118135
 H        -3.701772         1.458120        -0.313368
 H        -3.221805         2.231801         1.152780
 H        -2.369265        -2.134187         1.617503
 H        -3.799466        -3.035400         1.105416
 H        -1.999541        -2.426104        -1.202864
