19
Iteration:  2005charge 0 multiplicity 1
 C         1.246356        -0.825538        -0.343345
 C        -0.163753        -0.603691        -0.033608
 C        -1.304546        -0.089187         0.141350
 C        -2.595773         0.277321         0.596477
 C        -3.277560         1.173329        -0.429701
 O        -3.439390        -0.998033         0.761115
 C        -2.841013        -2.309882         1.160222
 C        -2.321636        -3.155232        -0.099291
 O        -2.029460        -4.324435        -0.048065
 H         1.901021         0.094066        -0.030278
 H         1.732476        -1.668807         0.133499
 H         1.455021        -1.049274        -1.382145
 H        -2.609529         0.778795         1.578394
 H        -4.009630         1.837658        -0.015546
 H        -2.556158         1.642301        -0.990792
 H        -3.813401         0.485988        -1.130990
 H        -2.052516        -2.325841         1.899777
 H        -3.732569        -2.725739         1.562733
 H        -2.559658        -2.719779        -1.006242
