19
Iteration:  2624charge 0 multiplicity 1
 C         1.504332        -0.436697        -0.525964
 C         0.007372        -0.386771        -0.247373
 C        -1.119618         0.057560         0.213644
 C        -2.553222         0.139093         0.813090
 C        -3.234348         1.136077        -0.139774
 O        -3.255404        -1.177362         0.764009
 C        -2.535298        -2.362241         1.025867
 C        -2.458798        -3.353185        -0.133689
 O        -3.032532        -4.468845        -0.068673
 H         1.562447         0.286210        -1.399939
 H         2.196222        -0.010060         0.306315
 H         1.931846        -1.405805        -0.892792
 H        -2.570310         0.404154         1.900790
 H        -4.353826         1.025117        -0.297775
 H        -2.968928         2.191289         0.208570
 H        -2.752733         0.954284        -1.106924
 H        -1.539083        -2.103624         1.325680
 H        -3.201267        -2.762489         1.816471
 H        -1.894943        -2.984057        -1.124027
