19
Iteration:  2879
 C         1.218583        -0.916346        -0.683625
 C        -0.081540        -0.433258        -0.159024
 C        -1.186537        -0.072496         0.260759
 C        -2.516286         0.074635         0.855483
 C        -3.163707         1.397477         0.450875
 O        -3.360515        -1.000311         0.387612
 C        -2.898944        -2.237565         0.841012
 C        -2.500450        -3.252825        -0.290843
 O        -2.225112        -4.395351         0.015200
 H         1.647717        -0.086167        -1.320418
 H         1.854151        -1.245790         0.138616
 H         0.973663        -1.648006        -1.424346
 H        -2.482833         0.012349         1.963620
 H        -4.069713         1.641144         1.043993
 H        -2.361286         2.218872         0.655610
 H        -3.464849         1.303492        -0.592025
 H        -2.020528        -2.103644         1.480173
 H        -3.615335        -2.860689         1.497586
 H        -2.389988        -2.822605        -1.266556
