19
Iteration:  4778charge 0 multiplicity 1
 C         1.778180        -0.090847         0.436542
 C         0.394021        -0.419547         0.704947
 C        -0.836384        -0.387934         0.655855
 C        -2.190720        -0.373467         0.966031
 C        -2.692993         1.054554         1.169525
 O        -3.044975        -1.049573         0.018122
 C        -2.894367        -2.414795         0.120280
 C        -3.741885        -3.091898        -0.906098
 O        -3.357825        -4.168362        -1.336348
 H         1.838695         0.811610        -0.190858
 H         2.063396         0.049748         1.572132
 H         2.357525        -0.950143         0.131312
 H        -2.306214        -0.928634         1.954850
 H        -1.958797         1.606546         1.815826
 H        -2.652516         1.505640         0.234759
 H        -3.698427         1.223891         1.598450
 H        -1.895707        -2.777877        -0.068885
 H        -3.150468        -2.876513         1.117049
 H        -4.812747        -2.697552        -0.981938
