19
Iteration:  2584
 C         1.348448        -0.559467        -0.637294
 C         0.113878        -0.013512         0.081311
 C        -1.053150        -0.142825         0.272230
 C        -2.505702         0.000045         0.691586
 C        -3.326521         1.088674        -0.056475
 O        -3.157544        -1.198126         0.382477
 C        -2.528157        -2.245305         1.141243
 C        -2.539304        -3.284673         0.015533
 O        -2.988470        -4.433829        -0.084379
 H         1.854542         0.369047        -1.067792
 H         1.836147        -1.375284        -0.087583
 H         0.937026        -1.073317        -1.483319
 H        -2.419047         0.221035         1.762788
 H        -4.344580         1.181221         0.400460
 H        -2.832991         2.015008         0.009203
 H        -3.253018         0.685072        -1.131521
 H        -1.400068        -1.916459         1.336007
 H        -2.923981        -2.486679         2.173689
 H        -2.094713        -2.835931        -0.855903
