19
Iteration:   476charge 0 multiplicity 1
 C         1.476320         0.343711         0.002103
 C         0.043793         0.433544         0.080940
 C        -1.078738         0.048167         0.235441
 C        -2.489882        -0.088978         0.166121
 C        -3.159694         0.932216        -0.738429
 O        -2.837413        -1.435478        -0.267492
 C        -2.177193        -2.645200         0.413354
 C        -3.149278        -3.816122         0.416733
 O        -3.307778        -4.506770         1.363895
 H         1.831608        -0.500520        -0.587911
 H         1.935231         1.250811        -0.433475
 H         1.949644         0.217729         1.071881
 H        -2.888217         0.177508         1.169454
 H        -3.944183         1.331893        -0.147262
 H        -2.418324         1.708190        -0.930504
 H        -3.522319         0.491051        -1.686700
 H        -1.157180        -2.844194         0.131787
 H        -2.277308        -2.359638         1.463916
 H        -3.636431        -4.105963        -0.562694
