19
Iteration:   971charge 0 multiplicity 1
 C         1.550859         0.053788        -0.306555
 C         0.030170         0.009159         0.019416
 C        -1.138577        -0.130966         0.282950
 C        -2.598270         0.061466         0.344097
 C        -2.859161         1.236693        -0.680340
 O        -3.381398        -1.157335         0.053553
 C        -3.032714        -2.415564         0.923158
 C        -2.692252        -3.764574         0.212083
 O        -2.564745        -4.750442         0.866987
 H         1.548609         0.143787        -1.412588
 H         2.107695         0.926162         0.083266
 H         2.050430        -0.908473         0.019171
 H        -2.987507         0.480784         1.311452
 H        -3.931680         1.394634        -0.850784
 H        -2.436760         2.111200        -0.156853
 H        -2.192982         1.135624        -1.556470
 H        -2.128641        -2.252484         1.627156
 H        -3.963492        -2.614133         1.511441
 H        -2.906664        -3.722567        -0.899971
