19
Iteration:  3613
 C         1.147483        -0.955074        -0.626388
 C        -0.021990        -0.474209         0.101373
 C        -1.113958        -0.263203         0.564743
 C        -2.485285         0.036951         1.004526
 C        -3.032344         1.412794         0.779894
 O        -3.228262        -0.912523         0.204285
 C        -3.187484        -2.305646         0.565643
 C        -2.434544        -3.097947        -0.375729
 O        -2.278794        -4.285829        -0.396680
 H         2.002478        -1.250705         0.068365
 H         0.685983        -1.844914        -1.183567
 H         1.637688        -0.262639        -1.289892
 H        -2.599883        -0.240002         2.112003
 H        -2.683450         2.033072         1.637244
 H        -2.815184         1.796674        -0.235351
 H        -4.141579         1.231691         0.832495
 H        -2.947279        -2.498728         1.621247
 H        -4.215238        -2.665240         0.539524
 H        -2.108757        -2.568034        -1.288935
