19
Iteration:  4087
 C         1.208311        -1.222204        -0.338471
 C         0.010785        -0.771031         0.333366
 C        -1.145241        -0.584831         0.700085
 C        -2.449391        -0.183108         1.075831
 C        -2.797451         1.362108         0.635877
 O        -3.589747        -0.888383         0.671717
 C        -3.349364        -2.333277         0.488707
 C        -2.698045        -2.738084        -0.801991
 O        -1.899872        -3.658874        -0.855317
 H         1.084824        -2.310532        -0.750318
 H         1.112966        -0.589563        -1.358179
 H         2.173228        -0.982772         0.173009
 H        -2.407346        -0.128881         2.176698
 H        -1.910902         2.039633         0.848460
 H        -2.857461         1.257363        -0.462516
 H        -3.826424         1.634367         1.147917
 H        -2.663421        -2.749965         1.244452
 H        -4.342772        -2.760116         0.427910
 H        -2.725182        -2.193468        -1.719361
