19
Iteration:   431
 C         1.482423         0.238928         0.015148
 C         0.061384         0.078666         0.178430
 C        -1.133236         0.101372         0.258430
 C        -2.544686        -0.145301         0.155201
 C        -3.338115         0.898074        -0.681908
 O        -2.789899        -1.478472        -0.388472
 C        -2.090545        -2.484536         0.323302
 C        -3.073894        -3.765441         0.351114
 O        -3.234196        -4.257827         1.477282
 H         1.726257         0.439138        -1.056200
 H         1.789854         1.139090         0.578993
 H         2.081972        -0.633514         0.412978
 H        -3.064274        -0.157449         1.128533
 H        -4.357392         0.622035        -0.629359
 H        -3.199012         1.873459        -0.165493
 H        -2.944408         0.951102        -1.721136
 H        -1.110096        -2.631262        -0.099857
 H        -1.957563        -2.175860         1.365335
 H        -3.799625        -3.926023        -0.484239
