19
Iteration:  1522charge 0 multiplicity 1
 C         1.573413         0.772169        -0.174370
 C         0.275411         0.088005         0.028402
 C        -0.941218        -0.008193         0.072094
 C        -2.350098        -0.211954         0.365847
 C        -3.166342         1.066116         0.012840
 O        -2.739221        -1.490659        -0.246932
 C        -2.407531        -2.619486         0.519708
 C        -3.276676        -3.787799         0.140953
 O        -3.589965        -4.665977         0.914723
 H         1.739474         0.927989        -1.235962
 H         1.499295         1.724510         0.353705
 H         2.412810         0.207947         0.294306
 H        -2.374835        -0.375654         1.456850
 H        -3.889471         0.908922        -0.800024
 H        -3.507090         1.743558         0.821116
 H        -2.299935         1.682304        -0.420492
 H        -1.314440        -2.900530         0.435363
 H        -2.684712        -2.528243         1.609207
 H        -3.667248        -3.711418        -0.859930
