19
Iteration:  2222charge 0 multiplicity 1
 C         0.990818        -1.354901        -0.705506
 C        -0.263411        -0.719591        -0.368081
 C        -1.143185        -0.235958         0.356446
 C        -2.560170         0.028133         0.709986
 C        -3.336367         1.259903         0.427462
 O        -3.508779        -0.916533         0.087632
 C        -3.282065        -2.238303         0.410340
 C        -2.098489        -2.987019        -0.048557
 O        -1.514732        -3.721469         0.779739
 H         1.512475        -1.876579         0.119170
 H         0.897189        -1.923190        -1.612032
 H         1.694050        -0.658495        -1.119477
 H        -2.520721        -0.175968         1.789591
 H        -4.018316         1.390804         1.278162
 H        -2.683202         2.132937         0.271065
 H        -3.937556         1.155291        -0.532343
 H        -3.184337        -2.384089         1.506647
 H        -4.256581        -2.689398         0.074025
 H        -1.634162        -2.968421        -1.103448
