19
Iteration:  4424
 C         1.648902        -0.413672         0.226916
 C         0.258192        -0.526735         0.341247
 C        -0.936843        -0.347954         0.551466
 C        -2.342387        -0.281803         1.093571
 C        -2.638197         1.150320         1.024521
 O        -3.303498        -0.954236         0.151064
 C        -3.312251        -2.344402         0.335888
 C        -3.121486        -3.043146        -0.951582
 O        -2.922851        -4.224729        -0.992622
 H         2.115888        -0.550101         1.208925
 H         2.162143        -1.148960        -0.463858
 H         1.969270         0.624484        -0.033797
 H        -2.273785        -0.713708         2.180121
 H        -1.759071         1.722857         1.348731
 H        -3.027575         1.534615         0.038306
 H        -3.367178         1.619245         1.773470
 H        -2.423543        -2.742314         0.805314
 H        -4.164995        -2.626016         0.915117
 H        -3.150012        -2.377466        -1.899349
