19
Iteration:  1260
 C         1.707346         0.217950         0.098318
 C         0.164646        -0.090704         0.198240
 C        -1.059757        -0.044178        -0.075267
 C        -2.454353         0.044664         0.366799
 C        -3.331006         1.004964        -0.321853
 O        -3.210467        -1.141843         0.081368
 C        -2.461173        -2.382524         0.372618
 C        -3.234711        -3.733234         0.194624
 O        -2.798570        -4.696367         0.773580
 H         2.056089        -0.316910        -0.810050
 H         1.868450         1.348643        -0.003222
 H         2.316524        -0.213159         0.956193
 H        -2.328426         0.241535         1.434153
 H        -3.848675         0.419417        -1.054225
 H        -4.071762         1.507451         0.278930
 H        -2.752625         1.678758        -1.049739
 H        -1.754807        -2.589398        -0.509610
 H        -2.018198        -2.308496         1.392525
 H        -4.154510        -3.783578        -0.378739
