19
Iteration:  3925
 C         0.914345        -1.460439        -0.473678
 C        -0.137072        -0.725421         0.109741
 C        -1.107460        -0.085747         0.530592
 C        -2.510476        -0.044247         1.147932
 C        -3.101588         1.302114         0.954307
 O        -3.299306        -0.811956         0.334376
 C        -3.165159        -2.241671         0.476154
 C        -2.325712        -2.810545        -0.639725
 O        -1.933931        -3.979235        -0.630760
 H         1.808404        -1.006330        -0.014742
 H         0.837151        -2.526798        -0.213257
 H         0.940882        -1.551675        -1.637383
 H        -2.369076        -0.345029         2.255045
 H        -2.447186         2.174003         1.157651
 H        -3.414854         1.377834        -0.094433
 H        -3.951391         1.388174         1.703063
 H        -2.690455        -2.570420         1.490001
 H        -4.255763        -2.573574         0.224034
 H        -2.354955        -2.097777        -1.493658
