19
Iteration:  3203charge 0 multiplicity 1
 C         0.979268        -1.304094        -0.633144
 C        -0.022505        -0.462702        -0.073504
 C        -1.154690        -0.091093         0.284765
 C        -2.541839         0.020930         0.841220
 C        -3.120061         1.339028         0.656517
 O        -3.483663        -0.926007         0.408588
 C        -3.131982        -2.287144         0.681563
 C        -2.420274        -3.066616        -0.396200
 O        -1.805583        -4.062864        -0.104905
 H         1.230888        -1.128272        -1.636541
 H         1.881580        -1.079255        -0.034692
 H         0.655695        -2.392554        -0.546420
 H        -2.355178        -0.037290         1.945526
 H        -3.189638         1.990237         1.549622
 H        -2.550878         1.885307        -0.161628
 H        -4.119282         1.235845         0.320652
 H        -2.493835        -2.161398         1.584106
 H        -4.028044        -2.804349         1.161987
 H        -2.290208        -2.655196        -1.464568
