19
Iteration:  1923charge 0 multiplicity 1
 C         1.460502        -0.447302        -0.244608
 C         0.014530        -0.468989        -0.104330
 C        -1.098296        -0.195251         0.159336
 C        -2.542354         0.167907         0.467688
 C        -3.358993         1.034977        -0.498281
 O        -3.324123        -1.055364         0.762501
 C        -2.611915        -2.251017         1.118917
 C        -2.763762        -3.266680         0.011520
 O        -2.440840        -4.422371        -0.012634
 H         1.897815        -0.991115         0.532485
 H         1.813225        -0.934893        -1.204326
 H         1.718801         0.642141        -0.171045
 H        -2.547256         0.681626         1.480529
 H        -4.408916         0.784935        -0.282482
 H        -3.424140         2.171552        -0.288727
 H        -3.131829         0.749338        -1.539353
 H        -1.506804        -2.208055         1.199144
 H        -3.024519        -2.557111         2.133387
 H        -3.192653        -2.793811        -0.850124
