19
Iteration:  4422charge 0 multiplicity 1
 C         1.638845        -0.419955         0.215699
 C         0.261251        -0.534216         0.359346
 C        -0.937222        -0.348843         0.543581
 C        -2.353751        -0.269521         1.094206
 C        -2.634709         1.160627         1.022084
 O        -3.298621        -0.956072         0.158744
 C        -3.321464        -2.349572         0.305220
 C        -3.132881        -3.041247        -0.946983
 O        -2.915454        -4.225486        -0.990644
 H         2.134594        -0.537650         1.205327
 H         2.152136        -1.100012        -0.516358
 H         1.943173         0.673465         0.041698
 H        -2.199637        -0.702173         2.181505
 H        -1.749934         1.745128         1.363523
 H        -2.940537         1.548645         0.035897
 H        -3.346573         1.616470         1.778262
 H        -2.408187        -2.802547         0.891321
 H        -4.146622        -2.724963         0.925246
 H        -3.124776        -2.388181        -1.842699
