19
Iteration:  4170
 C         1.338855        -1.321222        -0.225974
 C         0.035550        -0.673412         0.241871
 C        -1.066292        -0.315749         0.694452
 C        -2.487882        -0.023437         1.025386
 C        -3.043735         1.421478         0.853824
 O        -3.478004        -0.950855         0.560268
 C        -3.055870        -2.278002         0.543784
 C        -2.466782        -2.777709        -0.848556
 O        -2.396067        -3.962619        -1.047509
 H         1.930831        -1.351795         0.666293
 H         1.124993        -2.280332        -0.580338
 H         1.937293        -0.810965        -1.006043
 H        -2.665657        -0.218121         2.187244
 H        -2.574850         2.117526         1.608555
 H        -2.994192         1.865035        -0.180843
 H        -4.112837         1.423560         0.966586
 H        -2.495892        -2.643140         1.471166
 H        -3.898112        -3.044568         0.762593
 H        -2.162587        -2.014360        -1.627871
