19
Iteration:  3754
 C         1.376035        -0.684465        -0.445481
 C         0.016482        -0.647827        -0.033364
 C        -1.146277        -0.722403         0.400500
 C        -2.453860        -0.230490         1.016550
 C        -2.659745         1.226806         0.700242
 O        -3.655544        -0.879929         0.471225
 C        -3.598367        -2.289716         0.561196
 C        -2.657186        -2.925323        -0.507577
 O        -1.931258        -3.917187        -0.421673
 H         1.449141        -0.856680        -1.500279
 H         2.053733         0.117604        -0.047462
 H         1.942145        -1.535122        -0.066907
 H        -2.649575        -0.331779         2.117396
 H        -1.758023         1.721131         0.313630
 H        -3.459448         1.422156         0.016691
 H        -3.065767         1.758912         1.610799
 H        -3.338729        -2.674028         1.612576
 H        -4.626783        -2.588837         0.113970
 H        -2.528104        -2.198756        -1.360866
