19
Iteration:  3466
 C         1.338611        -0.713319        -0.456888
 C         0.001808        -0.657378        -0.057408
 C        -1.148747        -0.461949         0.215375
 C        -2.351768        -0.047433         0.873032
 C        -2.984589         1.298592         0.519418
 O        -3.542808        -0.977289         0.685191
 C        -3.223707        -2.275706         0.735912
 C        -2.603352        -2.985242        -0.515135
 O        -2.173524        -4.124294        -0.346320
 H         1.679099        -0.393046        -1.399313
 H         1.960361        -0.260714         0.317050
 H         1.557726        -1.831218        -0.474746
 H        -2.149783         0.029225         1.975967
 H        -2.861532         1.982996         1.350967
 H        -2.627079         1.628259        -0.428664
 H        -4.098715         1.125407         0.443996
 H        -2.603369        -2.597101         1.544126
 H        -4.174387        -2.826062         0.920945
 H        -2.409043        -2.325885        -1.531817
