19
Iteration:   612
 C         1.696539         0.664170        -0.156989
 C         0.297841         0.309735        -0.057237
 C        -0.859124        -0.032728         0.119040
 C        -2.311372        -0.191167         0.158157
 C        -3.048962         0.879069        -0.742493
 O        -2.948308        -1.473954        -0.083679
 C        -2.948799        -2.454130         1.056741
 C        -3.592277        -3.762312         0.680519
 O        -2.889339        -4.736390         0.726191
 H         1.952985         1.626020         0.372103
 H         2.260742        -0.240020         0.185688
 H         2.001243         0.924092        -1.240268
 H        -2.669149         0.068123         1.168076
 H        -4.001217         0.453563        -1.086014
 H        -3.320914         1.822997        -0.218848
 H        -2.519269         1.051872        -1.731066
 H        -1.946474        -2.725620         1.132045
 H        -3.324590        -2.002535         2.021173
 H        -4.684235        -3.802372         0.353105
