19
Iteration:  4318
 C         1.550971        -0.662422        -0.103913
 C         0.149603        -0.545274         0.451827
 C        -0.982167        -0.441277         0.916699
 C        -2.361573        -0.066812         1.200039
 C        -2.782187         1.307440         0.857625
 O        -3.335014        -0.860097         0.250976
 C        -3.339282        -2.329679         0.379262
 C        -2.789706        -3.085113        -0.837014
 O        -2.743819        -4.279858        -1.183547
 H         1.587816        -1.093523        -1.119998
 H         2.148435         0.275499        -0.014660
 H         2.036383        -1.402654         0.537913
 H        -2.456259        -0.155130         2.350375
 H        -2.132935         2.004688         1.315767
 H        -2.652954         1.604475        -0.226406
 H        -3.789952         1.433008         1.212199
 H        -2.834884        -2.945133         1.253563
 H        -4.367575        -2.535883         0.747332
 H        -2.484503        -2.274337        -1.628059
