19
Iteration:  4505charge 0 multiplicity 1
 C         1.656045        -0.603937         0.138228
 C         0.296721        -0.351396         0.478943
 C        -0.875334        -0.168598         0.680597
 C        -2.293717        -0.156828         1.013321
 C        -2.904364         1.236338         1.066516
 O        -3.190531        -1.008124         0.209973
 C        -3.056154        -2.421358         0.417666
 C        -3.013627        -3.098208        -0.992644
 O        -3.194784        -4.290321        -1.149561
 H         2.214097         0.339233        -0.156803
 H         2.179079        -0.980667         1.014749
 H         1.645814        -1.386194        -0.620489
 H        -2.291160        -0.633602         2.061511
 H        -2.598956         1.988101         1.859257
 H        -2.613368         1.795291         0.114293
 H        -3.965390         0.999513         0.959460
 H        -2.176270        -2.749017         0.920949
 H        -3.983822        -2.668528         0.963911
 H        -2.827941        -2.365406        -1.839839
