19
Iteration:   720charge 0 multiplicity 1
 C         1.568629         0.089732        -0.229311
 C         0.154441         0.356021        -0.037204
 C        -0.993291         0.039460         0.371609
 C        -2.550812         0.069956         0.334792
 C        -3.186776         0.935929        -0.807165
 O        -3.086916        -1.341243         0.172967
 C        -2.588748        -2.399418         0.900614
 C        -2.987250        -3.708026         0.216596
 O        -2.978719        -4.740731         0.811489
 H         1.803671        -0.293536        -1.210931
 H         2.108102         1.016145        -0.185422
 H         1.850956        -0.634268         0.576070
 H        -2.898452         0.535736         1.293463
 H        -4.266252         1.018548        -0.696063
 H        -2.851967         2.001408        -0.904952
 H        -3.006887         0.369908        -1.802444
 H        -1.396221        -2.472489         1.005757
 H        -2.907312        -2.432539         1.986181
 H        -3.240427        -3.625109        -0.865620
