19
Iteration:   206charge 0 multiplicity 1
 C         1.631943         0.476202        -0.202232
 C         0.217307         0.369905        -0.050246
 C        -0.947240         0.110032         0.088650
 C        -2.418603        -0.045442         0.163272
 C        -2.873980         0.694042        -1.069592
 O        -3.136665        -1.398547        -0.019303
 C        -2.526112        -2.467076         0.679322
 C        -3.485194        -3.676001         0.900122
 O        -3.134521        -4.801319         1.182566
 H         2.147547        -0.448551        -0.461845
 H         1.905045         1.146140        -1.052978
 H         2.132007         0.761605         0.799354
 H        -2.748481         0.468474         1.055182
 H        -2.127119         0.423659        -1.922459
 H        -3.913431         0.666877        -1.490973
 H        -2.588424         1.756729        -0.673900
 H        -1.526840        -2.795688         0.341350
 H        -2.366582        -2.154604         1.700473
 H        -4.623592        -3.399029         0.931009
