19
Iteration:  1755
 C         1.630203         0.064728        -0.197928
 C         0.150483         0.136922        -0.122260
 C        -1.008461         0.013360         0.118882
 C        -2.375752        -0.098470         0.491953
 C        -3.220470         1.009432        -0.160146
 O        -3.100155        -1.222438         0.022544
 C        -2.573605        -2.405701         0.646251
 C        -3.205061        -3.609626         0.170887
 O        -2.950085        -4.667331         0.647960
 H         2.131418         1.039543        -0.455771
 H         2.095846        -0.063841         0.734407
 H         1.997742        -0.712221        -0.838000
 H        -2.402727        -0.003296         1.606812
 H        -4.269505         0.572585        -0.154234
 H        -3.364027         1.961979         0.386989
 H        -2.782157         1.223844        -1.167518
 H        -1.511508        -2.580189         0.555975
 H        -2.746011        -2.328896         1.739259
 H        -3.973569        -3.423450        -0.584299
