19
Iteration:  2940charge 0 multiplicity 1
 C         1.155901        -1.018447        -0.663453
 C        -0.147912        -0.560898        -0.347616
 C        -1.124527        -0.098819         0.129198
 C        -2.417319         0.052940         0.812318
 C        -3.198480         1.381092         0.603819
 O        -3.461293        -0.943960         0.456968
 C        -3.145994        -2.288349         0.804160
 C        -2.191083        -3.076934        -0.105949
 O        -2.133478        -4.273843        -0.060441
 H         1.257988        -1.349001        -1.679798
 H         2.075111        -0.391413        -0.535274
 H         1.397912        -1.951347        -0.004245
 H        -2.203954        -0.150277         1.890228
 H        -4.238009         1.154816         0.833365
 H        -2.886012         2.234198         1.114144
 H        -3.177545         1.652995        -0.484855
 H        -2.855937        -2.459772         1.881143
 H        -4.128425        -2.679567         0.645014
 H        -1.733573        -2.460640        -0.881333
