19
Iteration:  4786
 C         1.784182        -0.077802         0.468074
 C         0.390557        -0.421024         0.709257
 C        -0.790089        -0.404535         0.705059
 C        -2.237008        -0.372133         0.983917
 C        -2.702319         1.015645         1.148251
 O        -3.035428        -1.024339        -0.002479
 C        -2.898849        -2.438672         0.115883
 C        -3.700947        -3.093449        -0.849028
 O        -3.413137        -4.150166        -1.352805
 H         1.947874         0.677358        -0.291969
 H         2.285749         0.503784         1.229573
 H         2.289754        -0.925854         0.055812
 H        -2.235473        -0.942303         1.865332
 H        -2.000598         1.457510         1.906228
 H        -2.606288         1.425449         0.127821
 H        -3.760640         0.983093         1.407192
 H        -1.908667        -2.669683        -0.165263
 H        -3.174956        -2.748358         1.156628
 H        -4.679157        -2.672948        -1.121129
