19
Iteration:  2820charge 0 multiplicity 1
 C         1.324863        -0.638444        -0.760394
 C         0.042089        -0.341056        -0.047549
 C        -1.107139        -0.046534         0.311329
 C        -2.478827         0.082395         0.915418
 C        -3.101251         1.262873         0.129697
 O        -3.330932        -1.079238         0.516458
 C        -2.958458        -2.318697         1.114895
 C        -2.742426        -3.302142        -0.165552
 O        -2.358286        -4.450733        -0.202739
 H         2.132303        -0.270315        -0.210271
 H         1.540490        -1.726180        -0.933024
 H         1.345048        -0.320723        -1.804204
 H        -2.383945         0.252957         1.995583
 H        -4.152534         1.411087         0.382866
 H        -2.603190         2.157098         0.235149
 H        -2.960594         1.028609        -0.945365
 H        -1.923282        -2.122584         1.521998
 H        -3.716308        -2.772968         1.765344
 H        -2.846398        -2.749721        -1.077393
