19
Iteration:  1510charge 0 multiplicity 1
 C         1.574141         0.731851        -0.200863
 C         0.321651         0.175038         0.127767
 C        -0.903878         0.023628         0.056953
 C        -2.286956        -0.225116         0.324102
 C        -3.120114         1.025972        -0.026102
 O        -2.797009        -1.414266        -0.286825
 C        -2.457346        -2.546668         0.616634
 C        -3.266687        -3.824154         0.200416
 O        -3.627292        -4.781045         0.855749
 H         1.609445         1.107672        -1.203969
 H         1.768548         1.614276         0.426023
 H         2.458650         0.085423        -0.101525
 H        -2.392523        -0.368331         1.417495
 H        -4.109916         0.646907        -0.442524
 H        -3.490382         1.322907         0.952513
 H        -2.770608         1.870342        -0.764180
 H        -1.351486        -2.775069         0.496441
 H        -2.543041        -2.192955         1.674504
 H        -3.588362        -3.753014        -0.821254
