19
Iteration:  1364charge 0 multiplicity 1
 C         1.645996         0.382919        -0.381630
 C         0.313944         0.298584         0.135892
 C        -0.858119         0.162531         0.517704
 C        -2.398207        -0.042527         0.509948
 C        -3.266208         0.855007        -0.406075
 O        -2.812124        -1.330644        -0.050460
 C        -2.735237        -2.503578         0.817450
 C        -3.284816        -3.673150         0.120946
 O        -3.164014        -4.823479         0.560860
 H         2.455458         0.155662         0.313291
 H         1.799356        -0.261780        -1.226030
 H         1.846580         1.374418        -0.718049
 H        -2.860546         0.008234         1.484897
 H        -2.757714         1.784630        -0.784328
 H        -3.530991         0.270683        -1.342001
 H        -4.216537         0.885553         0.121637
 H        -1.689760        -2.785052         1.212569
 H        -3.368011        -2.343564         1.718865
 H        -3.917054        -3.605264        -0.784241
