19
Iteration:  2057charge 0 multiplicity 1
 C         1.112069        -1.107245        -0.566914
 C        -0.142400        -0.532346         0.021617
 C        -1.245914        -0.283946         0.401283
 C        -2.671826         0.094468         0.692290
 C        -3.214663         1.229893        -0.309061
 O        -3.602918        -1.043854         0.479462
 C        -3.037899        -2.210571         1.033039
 C        -2.222250        -2.972186        -0.021348
 O        -1.679654        -4.040784         0.077499
 H         1.418841        -0.606093        -1.481977
 H         1.924838        -1.119333         0.152195
 H         0.966484        -2.132173        -0.928653
 H        -2.807282         0.381225         1.754837
 H        -3.950439         1.897455         0.188841
 H        -2.380492         1.776866        -0.686636
 H        -3.676616         0.734248        -1.204800
 H        -2.473140        -2.189149         1.980615
 H        -3.961228        -2.816734         1.285152
 H        -2.297131        -2.384345        -1.047415
