19
Iteration:   140charge 0 multiplicity 1
 C         1.581061         0.518483        -0.230152
 C         0.272168        -0.084632         0.024067
 C        -0.965498         0.084589        -0.069598
 C        -2.483093        -0.090823         0.062484
 C        -3.034809         0.592476        -1.145624
 O        -2.873136        -1.485847         0.010482
 C        -2.474661        -2.246132         1.209181
 C        -3.420226        -3.466359         0.958202
 O        -3.205066        -4.674503         0.879643
 H         1.563515         0.795845        -1.271045
 H         1.578565         1.493271         0.343429
 H         2.452467        -0.207768         0.110353
 H        -2.784577         0.340009         1.124172
 H        -2.960152         1.681689        -0.911795
 H        -2.397222         0.297330        -2.063918
 H        -4.178305         0.362978        -1.279261
 H        -1.401707        -2.480007         1.237035
 H        -2.897594        -1.733772         2.118779
 H        -4.280381        -2.915454         0.587014
