19
Iteration:  1300charge 0 multiplicity 1
 C         1.648049         0.293868        -0.077736
 C         0.151895         0.134813        -0.004452
 C        -1.023590        -0.104934         0.265539
 C        -2.562768        -0.088856         0.364584
 C        -3.134974         1.159066        -0.292231
 O        -3.066255        -1.337994        -0.217513
 C        -2.579179        -2.412665         0.691087
 C        -3.222828        -3.683324         0.297918
 O        -2.902228        -4.801474         0.673227
 H         2.206246        -0.639180        -0.211032
 H         1.946981         1.005835        -0.899509
 H         1.916254         0.790294         0.848060
 H        -2.919970        -0.034025         1.427705
 H        -3.056564         1.318074        -1.387093
 H        -4.212813         1.339015        -0.055102
 H        -2.539950         1.862285         0.298022
 H        -1.528678        -2.578710         0.411715
 H        -2.490041        -2.202404         1.773460
 H        -4.005073        -3.443718        -0.513082
