19
Iteration:  1264charge 0 multiplicity 1
 C         1.671437         0.227854         0.068709
 C         0.187937        -0.073663         0.207755
 C        -1.032309        -0.043224        -0.070288
 C        -2.435706         0.030081         0.420132
 C        -3.327418         0.992920        -0.337299
 O        -3.203475        -1.144431         0.049742
 C        -2.514314        -2.408154         0.358414
 C        -3.232145        -3.705809         0.178560
 O        -2.794736        -4.690526         0.783946
 H         2.165338        -0.328102        -0.736853
 H         1.781524         1.231783        -0.114353
 H         2.250903        -0.043914         0.935519
 H        -2.327554         0.193643         1.503788
 H        -3.754241         0.373489        -1.160613
 H        -4.025504         1.472998         0.379853
 H        -2.714201         1.673996        -0.894498
 H        -1.606212        -2.518999        -0.328022
 H        -2.229118        -2.347007         1.406015
 H        -4.239736        -3.811802        -0.307844
