19
Iteration:  3504
 C         1.280447        -0.880267        -0.625495
 C         0.036142        -0.499252         0.036952
 C        -1.034990        -0.146099         0.529543
 C        -2.442135        -0.005309         0.946933
 C        -2.996525         1.380639         0.536612
 O        -3.474844        -0.991257         0.480768
 C        -3.334854        -2.405139         0.709219
 C        -2.472462        -3.085451        -0.356858
 O        -2.208705        -4.269962        -0.478045
 H         0.977014        -1.290669        -1.661622
 H         2.082516        -0.062599        -0.673805
 H         1.782568        -1.555591         0.072251
 H        -2.476155        -0.210047         2.025552
 H        -2.440346         2.140162         1.142952
 H        -2.901859         1.796342        -0.512937
 H        -4.039045         1.389569         0.846038
 H        -2.835244        -2.462207         1.717770
 H        -4.328395        -2.834883         0.746464
 H        -2.155934        -2.245989        -1.160764
