19
Iteration:  2413charge 0 multiplicity 1
 C         1.380031        -0.299336        -0.612103
 C        -0.026009        -0.241978        -0.437786
 C        -1.109348        -0.324957         0.168969
 C        -2.453689        -0.058905         0.683763
 C        -2.803184         1.386212         0.218758
 O        -3.346460        -1.076329         0.223572
 C        -3.469222        -2.381845         0.848175
 C        -2.603710        -3.407655         0.032874
 O        -2.274704        -4.513773         0.485434
 H         1.694608        -0.995214        -1.338556
 H         1.654293         0.710854        -0.884679
 H         1.885834        -0.407129         0.365622
 H        -2.514703         0.021304         1.774491
 H        -3.610265         1.784599         0.843854
 H        -1.958540         1.972236         0.286235
 H        -3.193766         1.379875        -0.839004
 H        -3.238989        -2.503947         1.920693
 H        -4.447830        -2.802123         0.618187
 H        -2.156885        -2.998668        -0.998310
