19
Iteration:  1339charge 0 multiplicity 1
 C         1.550627         0.332716        -0.277522
 C         0.156257         0.277689         0.071762
 C        -1.016662         0.120045         0.330494
 C        -2.480761        -0.087739         0.457759
 C        -3.082997         1.133879        -0.352666
 O        -2.777841        -1.394973        -0.072947
 C        -2.660359        -2.517723         0.787503
 C        -3.301794        -3.735272         0.202992
 O        -3.056235        -4.854289         0.606635
 H         2.191322        -0.380727         0.306028
 H         1.694849         0.152219        -1.335627
 H         1.968225         1.359046        -0.059543
 H        -2.899424        -0.060085         1.474777
 H        -2.233336         1.687635        -0.807213
 H        -3.803601         0.787086        -1.132087
 H        -3.700040         1.731987         0.308607
 H        -1.616493        -2.868602         1.018328
 H        -3.189237        -2.258314         1.738284
 H        -3.891226        -3.678576        -0.765547
