19
Iteration:   793
 C         1.510761        -0.106360         0.081559
 C         0.022444        -0.342177        -0.215411
 C        -1.124461         0.083811         0.018041
 C        -2.540619         0.095284         0.155993
 C        -3.592189         0.977839        -0.590000
 O        -3.017164        -1.274734         0.178901
 C        -2.264613        -2.275484         0.982754
 C        -2.546788        -3.509812         0.193632
 O        -3.073438        -4.482577         0.741481
 H         1.987317        -0.966540         0.577319
 H         2.044057        -0.035171        -0.872699
 H         1.615571         0.793504         0.756502
 H        -2.701814         0.419512         1.209700
 H        -4.631868         0.642116        -0.470043
 H        -3.643951         1.995031        -0.139609
 H        -3.452119         1.048819        -1.613391
 H        -1.265851        -2.075758         1.140850
 H        -2.709314        -2.414161         1.953324
 H        -2.226562        -3.589057        -0.858820
