19
Iteration:  2698
 C         1.520537        -0.273118        -0.573736
 C         0.188293        -0.192112        -0.057652
 C        -1.071427        -0.116708         0.078506
 C        -2.327584        -0.054502         0.666914
 C        -3.121218         0.932257        -0.134672
 O        -3.445395        -1.113985         0.836310
 C        -2.815418        -2.373960         1.186822
 C        -2.799693        -3.235928        -0.038100
 O        -2.785769        -4.446988        -0.251693
 H         1.559357        -1.085434        -1.248182
 H         1.761365         0.615414        -1.141288
 H         2.380354        -0.330064         0.180286
 H        -2.239643         0.286422         1.704684
 H        -3.784099         1.364881         0.589395
 H        -2.454923         1.726532        -0.564348
 H        -3.613489         0.441580        -0.903370
 H        -1.659333        -2.262386         1.256456
 H        -3.318778        -2.734956         2.111463
 H        -2.682489        -2.494068        -0.948358
