19
Iteration:  1019
 C         1.675566         0.121433        -0.192488
 C         0.208467        -0.187400        -0.049383
 C        -0.999752        -0.280788         0.163461
 C        -2.446366        -0.055506         0.362674
 C        -3.295759         0.949543        -0.586468
 O        -3.172703        -1.282632         0.021184
 C        -3.149599        -2.163545         1.061297
 C        -2.958808        -3.457255         0.286805
 O        -2.485744        -4.556758         0.626671
 H         2.306440        -0.603301        -0.759693
 H         1.754402         1.142249        -0.674736
 H         2.034228         0.228166         0.809982
 H        -2.646819         0.149078         1.445639
 H        -4.306831         0.363746        -0.773636
 H        -3.522870         1.979124        -0.109388
 H        -2.626558         1.068375        -1.467887
 H        -2.393890        -1.844639         1.804707
 H        -4.162769        -2.210298         1.548225
 H        -3.146360        -3.191609        -0.810936
