19
Iteration:  4295
 C         1.443927        -0.799331        -0.093030
 C         0.156505        -0.640014         0.554725
 C        -0.996520        -0.294112         0.796753
 C        -2.443224        -0.169091         1.069167
 C        -2.829737         1.417714         0.937409
 O        -3.342834        -0.945843         0.297534
 C        -3.218041        -2.314666         0.345491
 C        -2.612330        -2.997569        -0.928325
 O        -2.792569        -4.211894        -1.059544
 H         1.223603        -0.590241        -1.152591
 H         2.196417        -0.028861         0.248435
 H         1.906155        -1.755355        -0.098585
 H        -2.514686        -0.357065         2.221163
 H        -1.981549         2.042565         1.060138
 H        -2.985307         1.733080        -0.123418
 H        -3.683022         1.785831         1.529043
 H        -2.617768        -2.785880         1.258504
 H        -4.210200        -2.806115         0.686113
 H        -2.036573        -2.355335        -1.735455
