19
Iteration:   369
 C         1.601708         0.093748         0.181727
 C         0.128236         0.327974         0.027409
 C        -1.077673         0.144948        -0.002119
 C        -2.569239        -0.159915         0.117052
 C        -3.428976         0.767288        -0.641657
 O        -2.866267        -1.509268        -0.346105
 C        -2.101355        -2.511077         0.319313
 C        -3.186562        -3.599016         0.474709
 O        -3.163868        -4.253306         1.481636
 H         2.154032         0.987702         0.203773
 H         1.698984        -0.418469         1.138876
 H         2.108889        -0.611027        -0.535747
 H        -2.731152        -0.006919         1.217843
 H        -3.211279         0.762333        -1.707178
 H        -4.470151         0.459993        -0.541870
 H        -3.492559         1.799409        -0.266619
 H        -1.318215        -3.016645        -0.322456
 H        -1.478678        -2.140899         1.195425
 H        -4.031752        -3.592006        -0.325048
