19
Iteration:  3327
 C         1.220232        -0.974752        -0.560226
 C        -0.101017        -0.620675         0.049057
 C        -1.177282        -0.231177         0.426542
 C        -2.535093        -0.027195         0.906005
 C        -2.946319         1.349203         0.347884
 O        -3.507556        -0.954774         0.565623
 C        -3.239327        -2.386860         0.877472
 C        -2.494790        -3.015277        -0.378922
 O        -1.900749        -4.062121        -0.431650
 H         1.508714        -1.897547        -0.051796
 H         0.845690        -1.393703        -1.522297
 H         1.858742        -0.167078        -0.576444
 H        -2.488793         0.062412         2.023267
 H        -2.260879         1.858144        -0.306454
 H        -3.764678         1.180776        -0.293127
 H        -3.262631         2.206350         0.986657
 H        -2.702648        -2.700001         1.841607
 H        -4.284635        -2.762354         0.938483
 H        -2.468144        -2.433229        -1.281368
