19
Iteration:   788charge 0 multiplicity 1
 C         1.477693        -0.079231         0.066328
 C         0.020577        -0.366670        -0.152352
 C        -1.103338         0.022915         0.012030
 C        -2.550292         0.134038         0.146353
 C        -3.593241         0.991553        -0.589265
 O        -2.977482        -1.275335         0.224104
 C        -2.281433        -2.261549         0.933893
 C        -2.546691        -3.519773         0.179594
 O        -3.081986        -4.495859         0.754169
 H         2.146834        -0.936038         0.411765
 H         1.938285         0.158350        -0.955675
 H         1.489712         0.730743         0.760883
 H        -2.771934         0.348955         1.228301
 H        -4.611166         0.535656        -0.549119
 H        -3.617670         2.036487        -0.275391
 H        -3.324992         1.226997        -1.716421
 H        -1.134362        -1.925906         1.149507
 H        -2.754382        -2.435677         1.979383
 H        -2.347407        -3.679235        -0.911713
