19
Iteration:  1801charge 0 multiplicity 1
 C         1.448690         0.014950        -0.310510
 C         0.076173        -0.142793         0.035392
 C        -1.050850         0.111771         0.147229
 C        -2.483456         0.142363         0.498956
 C        -3.134075         1.186011        -0.439127
 O        -3.077982        -1.305979         0.350471
 C        -2.437539        -2.429590         0.988664
 C        -3.061971        -3.583753         0.160515
 O        -2.943176        -4.821389         0.294346
 H         1.572451         0.362278        -1.336903
 H         1.925221         0.872815         0.234483
 H         1.962171        -0.932550        -0.112497
 H        -2.656031         0.581919         1.486375
 H        -4.239456         1.009564        -0.527054
 H        -3.093625         2.173958        -0.047887
 H        -2.518542         1.167662        -1.408405
 H        -1.384624        -2.303664         0.940568
 H        -2.684029        -2.578330         2.074059
 H        -3.688665        -3.140046        -0.661934
