19
Iteration:  2578charge 0 multiplicity 1
 C         1.353708        -0.531659        -0.674866
 C         0.197581        -0.058178         0.082363
 C        -1.082426        -0.051051         0.280978
 C        -2.500108         0.014858         0.746639
 C        -3.342973         1.071851        -0.046350
 O        -3.172121        -1.195539         0.344297
 C        -2.539617        -2.266331         1.136881
 C        -2.561506        -3.328834         0.029641
 O        -2.974252        -4.430530        -0.072618
 H         2.127533         0.169741        -0.925779
 H         1.754313        -1.385910        -0.104040
 H         0.882184        -1.037665        -1.579792
 H        -2.491851         0.095559         1.870881
 H        -4.334617         1.216086         0.323800
 H        -2.766055         2.056224        -0.146228
 H        -3.402267         0.590389        -0.993967
 H        -1.588010        -1.876983         1.233950
 H        -3.049440        -2.428118         2.067442
 H        -1.947518        -2.801009        -0.832722
