19
Iteration:  1828
 C         1.498427        -0.105764        -0.431128
 C         0.190727        -0.036858         0.139010
 C        -1.002740         0.035075         0.387239
 C        -2.484336         0.106442         0.570973
 C        -3.227561         0.896098        -0.488620
 O        -3.167347        -1.148052         0.465989
 C        -2.625410        -2.368678         0.832171
 C        -3.064302        -3.518358         0.028312
 O        -2.781339        -4.651571         0.300193
 H         1.539207        -0.418965        -1.505022
 H         1.963632         0.911948        -0.487648
 H         2.176314        -0.771574         0.163559
 H        -2.691296         0.639936         1.510264
 H        -4.280637         0.963142        -0.279536
 H        -2.881485         1.957970        -0.584280
 H        -2.996525         0.358970        -1.357147
 H        -1.498692        -2.276396         0.746462
 H        -2.820962        -2.651667         1.870816
 H        -3.605131        -3.234577        -0.848848
