19
Iteration:  3211charge 0 multiplicity 1
 C         0.950218        -1.318354        -0.652581
 C        -0.014335        -0.427831        -0.006894
 C        -1.147213        -0.130177         0.248615
 C        -2.485917         0.084879         0.911838
 C        -3.207835         1.410142         0.622780
 O        -3.427643        -0.968190         0.386535
 C        -3.168769        -2.309644         0.730073
 C        -2.371688        -3.044335        -0.393456
 O        -1.827964        -4.090946        -0.137008
 H         1.109516        -1.168484        -1.732176
 H         1.964896        -1.257163        -0.278537
 H         0.835980        -2.371918        -0.192214
 H        -2.385884        -0.164487         1.976752
 H        -2.995183         2.118481         1.455263
 H        -2.725911         1.916457        -0.292605
 H        -4.271998         1.222864         0.397162
 H        -2.427243        -2.424480         1.525360
 H        -4.176345        -2.715615         1.018114
 H        -2.322019        -2.573945        -1.480993
