19
Iteration:  4183
 C         1.314774        -1.299216        -0.166868
 C         0.088001        -0.626860         0.287152
 C        -1.043774        -0.254162         0.564762
 C        -2.431535         0.022390         1.079969
 C        -3.079731         1.356964         0.848985
 O        -3.488146        -0.921691         0.577587
 C        -3.077368        -2.327426         0.458275
 C        -2.469145        -2.808243        -0.780633
 O        -2.452030        -4.011765        -1.075032
 H         2.171993        -1.295385         0.515085
 H         1.063072        -2.379133        -0.243208
 H         1.600780        -0.907609        -1.131671
 H        -2.196883        -0.050822         2.257165
 H        -2.878991         1.989741         1.769240
 H        -2.720280         1.823086        -0.055812
 H        -4.112999         1.090756         1.004501
 H        -2.245474        -2.522593         1.175228
 H        -4.109357        -2.721260         0.475051
 H        -1.998099        -2.042132        -1.417966
