19
Iteration:  3556charge 0 multiplicity 1
 C         1.004213        -0.935410        -0.622647
 C        -0.132543        -0.488310         0.082247
 C        -1.120987        -0.313073         0.752280
 C        -2.522954         0.095964         1.013929
 C        -2.992812         1.447849         0.694093
 O        -3.283492        -0.921147         0.207919
 C        -3.013422        -2.301704         0.564484
 C        -2.232830        -3.135752        -0.447090
 O        -2.378408        -4.319345        -0.362743
 H         0.968668        -2.007430        -0.850129
 H         1.020730        -0.473114        -1.675810
 H         1.977741        -0.562132        -0.337906
 H        -2.743322        -0.334614         2.022521
 H        -2.197440         2.220489         0.809238
 H        -3.348157         1.369672        -0.403651
 H        -3.769862         1.746088         1.359972
 H        -2.639995        -2.291517         1.565858
 H        -4.031182        -2.685509         0.524587
 H        -1.356168        -2.771291        -1.074779
