19
Iteration:  1027charge 0 multiplicity 1
 C         1.679034         0.086588        -0.193021
 C         0.220887        -0.146148         0.013795
 C        -0.985600        -0.248844         0.132678
 C        -2.428002        -0.126816         0.284046
 C        -3.334810         0.979443        -0.601004
 O        -3.150175        -1.265405         0.004187
 C        -3.168499        -2.190298         1.171548
 C        -2.932413        -3.478247         0.281826
 O        -2.491355        -4.532725         0.589786
 H         2.400997        -0.712926        -0.455692
 H         1.737702         1.020375        -0.843729
 H         2.058046         0.386179         0.786945
 H        -2.563946         0.249009         1.348181
 H        -4.406036         0.648211        -0.787739
 H        -3.455347         1.876870         0.045376
 H        -3.002549         1.182003        -1.609820
 H        -2.306068        -2.043624         1.919968
 H        -4.184357        -2.230483         1.618865
 H        -3.458768        -3.344296        -0.678750
