19
Iteration:  3962charge 0 multiplicity 1
 C         1.113521        -1.503053        -0.484295
 C        -0.092370        -0.772554         0.127290
 C        -1.141707        -0.332766         0.584942
 C        -2.588619        -0.045546         1.046949
 C        -3.038810         1.527470         0.906040
 O        -3.539170        -0.855583         0.421901
 C        -3.245769        -2.342086         0.554068
 C        -2.372521        -2.769900        -0.633993
 O        -1.793456        -3.837390        -0.726290
 H         1.845164        -0.731250        -0.852052
 H         1.597808        -2.055874         0.358973
 H         0.800627        -2.220282        -1.412572
 H        -2.675804        -0.222105         2.106494
 H        -2.066733         1.992955         1.026555
 H        -3.629726         1.937270         0.083435
 H        -3.643867         1.672557         1.782667
 H        -2.754003        -2.514832         1.522920
 H        -4.175324        -2.917558         0.509049
 H        -2.414304        -2.176245        -1.570578
