19
Iteration:  2365charge 0 multiplicity 1
 C         1.375552        -0.340916        -0.818859
 C         0.140643        -0.499366        -0.077394
 C        -1.083000        -0.433125         0.203750
 C        -2.456211        -0.208027         0.591377
 C        -2.941811         1.238614         0.265387
 O        -3.518731        -1.057610         0.171003
 C        -3.538561        -2.343089         0.685766
 C        -2.506031        -3.199081         0.045450
 O        -2.126795        -4.162418         0.620154
 H         1.010595         0.024321        -1.866248
 H         2.080271         0.380445        -0.351243
 H         1.885092        -1.290964        -0.857841
 H        -2.442831        -0.178874         1.722844
 H        -3.813299         1.474157         0.908316
 H        -2.034019         1.970770         0.440944
 H        -3.259723         1.383785        -0.748478
 H        -3.306790        -2.252092         1.727088
 H        -4.446102        -2.946698         0.567588
 H        -2.074918        -2.837376        -1.012968
