19
Iteration:  1754charge 0 multiplicity 1
 C         1.637634         0.065488        -0.196627
 C         0.163916         0.141486        -0.115933
 C        -1.020048         0.019500         0.113562
 C        -2.370347        -0.105790         0.495075
 C        -3.220365         1.000816        -0.156353
 O        -3.097214        -1.217103         0.015894
 C        -2.581924        -2.406277         0.635146
 C        -3.213215        -3.618452         0.167903
 O        -2.947027        -4.664523         0.659916
 H         2.103041         1.065464        -0.448999
 H         2.091787        -0.093747         0.736049
 H         1.979678        -0.708174        -0.868331
 H        -2.397642         0.022329         1.607641
 H        -4.263955         0.559140        -0.137545
 H        -3.344552         1.988653         0.408324
 H        -2.821596         1.221486        -1.155915
 H        -1.492269        -2.575599         0.546305
 H        -2.747610        -2.332424         1.723434
 H        -4.006514        -3.424987        -0.613613
