19
Iteration:   972charge 0 multiplicity 1
 C         1.547093         0.054810        -0.297277
 C         0.035513         0.003154         0.008357
 C        -1.130183        -0.127063         0.280705
 C        -2.597181         0.057797         0.339749
 C        -2.856314         1.231148        -0.675874
 O        -3.378905        -1.165317         0.062509
 C        -3.032616        -2.415291         0.919772
 C        -2.699970        -3.756924         0.214029
 O        -2.564190        -4.741423         0.864657
 H         1.551974         0.110622        -1.414710
 H         2.089980         0.964052         0.077314
 H         2.055970        -0.879330         0.019939
 H        -2.987772         0.484449         1.308587
 H        -3.976709         1.394279        -0.879860
 H        -2.482753         2.152365        -0.137149
 H        -2.184034         1.115211        -1.551197
 H        -2.135264        -2.289090         1.644627
 H        -3.972588        -2.625100         1.478047
 H        -2.923104        -3.721120        -0.911227
