19
Iteration:  3191charge 0 multiplicity 1
 C         1.083072        -1.258082        -0.596770
 C        -0.166554        -0.542948        -0.197428
 C        -1.189744        -0.105090         0.329794
 C        -2.481179        -0.037076         0.863433
 C        -3.087559         1.404527         0.638596
 O        -3.573521        -0.930848         0.378478
 C        -3.079989        -2.212106         0.711612
 C        -2.413847        -3.060331        -0.368418
 O        -1.781611        -4.057209        -0.073727
 H         1.390685        -0.851128        -1.519204
 H         1.931806        -1.375447         0.070421
 H         0.720164        -2.338808        -0.789078
 H        -2.452760        -0.386041         1.923827
 H        -3.192187         1.787698         1.669904
 H        -2.409875         2.145887         0.055398
 H        -4.029326         1.297497         0.151772
 H        -2.353824        -2.375731         1.519871
 H        -3.993272        -2.897973         0.807047
 H        -2.733472        -2.649442        -1.422459
