19
Iteration:   812charge 0 multiplicity 1
 C         1.487674        -0.255865         0.082431
 C         0.103243        -0.018581        -0.222238
 C        -1.125985         0.152649        -0.160559
 C        -2.575718         0.055100         0.297066
 C        -3.520330         0.882003        -0.517743
 O        -3.051982        -1.325601         0.130057
 C        -2.393169        -2.189918         0.967349
 C        -2.499288        -3.518872         0.291346
 O        -3.071507        -4.524455         0.680454
 H         1.583217        -0.980678         0.953086
 H         2.184760        -0.654127        -0.736290
 H         1.818374         0.711205         0.470775
 H        -2.714613         0.213660         1.405839
 H        -4.595932         0.610057        -0.241910
 H        -3.376843         1.969703        -0.417579
 H        -3.386834         0.713976        -1.571634
 H        -1.268317        -1.857949         0.931409
 H        -2.710057        -2.132576         2.073200
 H        -2.137994        -3.488371        -0.763456
