19
Iteration:     9charge 0 multiplicity 1
 C         1.613558         0.152034        -0.169640
 C         0.185065        -0.034119        -0.136117
 C        -1.032164         0.074923        -0.032642
 C        -2.493385        -0.092195         0.062186
 C        -3.157981         0.680725        -1.059855
 O        -2.950235        -1.379664        -0.115925
 C        -2.563865        -2.143611         0.996476
 C        -3.165044        -3.559457         0.663460
 O        -3.103368        -4.515337         1.414169
 H         1.998114         0.196971         0.837831
 H         2.128981        -0.708877        -0.705486
 H         2.052627         1.124926        -0.677356
 H        -2.637122         0.309244         1.066737
 H        -2.936730         0.081615        -1.901631
 H        -4.262838         0.898464        -0.931878
 H        -2.654143         1.696989        -1.158857
 H        -1.455563        -2.172399         1.203471
 H        -3.079729        -1.598891         1.799739
 H        -3.791800        -3.673494        -0.240405
