19
Iteration:  3465
 C         1.333504        -0.709225        -0.450075
 C         0.000247        -0.660302        -0.069768
 C        -1.145424        -0.463350         0.215511
 C        -2.358105        -0.049024         0.867632
 C        -2.980599         1.296667         0.519642
 O        -3.547769        -0.979671         0.685477
 C        -3.220108        -2.277837         0.744552
 C        -2.609247        -2.981778        -0.518793
 O        -2.173040        -4.113238        -0.345395
 H         1.699553        -0.366680        -1.374533
 H         1.945638        -0.311938         0.324669
 H         1.594713        -1.819682        -0.468593
 H        -2.135332         0.032532         1.963829
 H        -2.844423         1.975062         1.347341
 H        -2.599849         1.600479        -0.409421
 H        -4.089332         1.123252         0.443273
 H        -2.576258        -2.596216         1.561431
 H        -4.177177        -2.832976         0.936607
 H        -2.378024        -2.380866        -1.558529
