19
Iteration:   297charge 0 multiplicity 1
 C         1.629802         0.293131         0.078128
 C         0.158243         0.091087         0.053269
 C        -1.029027        -0.017087        -0.052008
 C        -2.464146        -0.074814        -0.012995
 C        -3.410120         0.873151        -0.703233
 O        -2.829892        -1.479301        -0.383819
 C        -2.279418        -2.523869         0.465604
 C        -3.357936        -3.516983         0.700884
 O        -3.069478        -4.442186         1.427290
 H         1.860961         0.485205         1.219436
 H         2.205853        -0.605398        -0.256259
 H         2.075449         1.137988        -0.409611
 H        -2.693216         0.021419         1.028075
 H        -3.923440         1.582654         0.054682
 H        -2.985074         1.588062        -1.443381
 H        -4.188814         0.327261        -1.227540
 H        -1.311056        -2.832612         0.090176
 H        -2.032136        -2.233108         1.474498
 H        -4.441142        -3.448418         0.354073
