19
Iteration:  2306
 C         1.184867        -0.785216        -0.738508
 C        -0.165256        -0.407842        -0.385645
 C        -1.219865        -0.399043         0.266397
 C        -2.568799        -0.113263         0.647435
 C        -2.884417         1.390932         0.422540
 O        -3.546881        -1.019452         0.059593
 C        -3.444397        -2.346789         0.555733
 C        -2.287075        -3.222866        -0.005904
 O        -1.821132        -4.018442         0.787886
 H         1.836959         0.105195        -0.769388
 H         1.630127        -1.362253         0.129728
 H         1.318535        -1.261997        -1.791252
 H        -2.645099        -0.252843         1.757904
 H        -3.988615         1.480603         0.297235
 H        -2.583341         1.984525         1.242357
 H        -2.358595         1.694448        -0.553262
 H        -3.257474        -2.377802         1.669376
 H        -4.360059        -2.939504         0.376171
 H        -1.924452        -3.053094        -1.132937
