19
Iteration:  3156
 C         1.111124        -1.085375        -0.574931
 C        -0.268028        -0.837582        -0.301063
 C        -1.286748        -0.372983         0.196457
 C        -2.470248         0.054517         0.890610
 C        -2.999817         1.513902         0.652331
 O        -3.503640        -0.915973         0.397820
 C        -3.278257        -2.313722         0.771278
 C        -2.421950        -3.048587        -0.281892
 O        -1.662806        -3.998331        -0.114710
 H         1.681573        -0.178866        -0.854543
 H         1.696459        -1.562281         0.167835
 H         1.220893        -1.702664        -1.548691
 H        -2.239723        -0.141600         1.961472
 H        -3.797551         1.651722         1.417954
 H        -2.243497         2.293092         0.843429
 H        -3.582789         1.714274        -0.312065
 H        -2.836188        -2.351152         1.753329
 H        -4.337137        -2.477257         1.071853
 H        -2.365028        -2.738136        -1.355542
