19
Iteration:  4228
 C         1.309047        -1.182437        -0.044261
 C         0.025262        -0.597572         0.179662
 C        -1.000679        -0.127026         0.638967
 C        -2.383960         0.006254         1.052497
 C        -3.039910         1.414502         0.969236
 O        -3.321098        -0.985279         0.356659
 C        -3.130319        -2.385560         0.547994
 C        -2.462559        -2.941663        -0.747015
 O        -2.630358        -4.058079        -1.157291
 H         2.132250        -0.452869        -0.133769
 H         1.685321        -1.870779         0.770116
 H         1.355556        -1.684075        -0.977025
 H        -2.557564        -0.574958         2.052669
 H        -2.553396         2.077438         1.704438
 H        -2.736514         1.930787         0.072243
 H        -4.116882         1.345544         1.242090
 H        -2.470093        -2.532199         1.476344
 H        -4.152506        -2.932558         0.614893
 H        -2.019975        -2.043447        -1.301423
