19
Iteration:  2560charge 0 multiplicity 1
 C         1.362711        -0.560092        -0.688316
 C         0.113108        -0.167169        -0.004481
 C        -1.025867         0.209510         0.394429
 C        -2.466028         0.096587         0.705195
 C        -3.338386         1.075484        -0.033976
 O        -3.117719        -1.178221         0.383270
 C        -2.686707        -2.332034         1.030102
 C        -2.463537        -3.406235        -0.026410
 O        -2.988124        -4.481091         0.008358
 H         2.057180         0.311154        -0.493823
 H         1.636354        -1.602680        -0.420357
 H         1.247600        -0.572734        -1.770030
 H        -2.542797         0.315593         1.789735
 H        -4.169458         1.342254         0.663408
 H        -2.773228         2.015698        -0.252806
 H        -3.650903         0.579985        -0.959169
 H        -1.675975        -2.235680         1.601509
 H        -3.379961        -2.751837         1.831624
 H        -1.857959        -3.055013        -0.850643
