19
Iteration:  3647charge 0 multiplicity 1
 C         1.363146        -0.889760        -0.518193
 C         0.002378        -0.529600        -0.105056
 C        -1.010218        -0.196660         0.475208
 C        -2.386596        -0.095497         0.963116
 C        -2.946407         1.276937         0.801826
 O        -3.517461        -0.911441         0.308408
 C        -3.391905        -2.321950         0.572671
 C        -2.586119        -3.026376        -0.424510
 O        -2.172122        -4.179390        -0.362016
 H         2.064450        -0.414858         0.261213
 H         1.424594        -1.972631        -0.178659
 H         1.558720        -0.790942        -1.587667
 H        -2.450345        -0.210599         2.082209
 H        -2.728742         1.965754         1.642060
 H        -2.578801         1.786472        -0.066137
 H        -4.093180         1.151518         0.729773
 H        -2.832032        -2.620260         1.439431
 H        -4.301634        -2.891452         0.555297
 H        -2.405285        -2.351141        -1.300301
