19
Iteration:  2968
 C         1.177098        -1.033402        -0.771626
 C        -0.126703        -0.500952        -0.302772
 C        -1.160368        -0.206679         0.286665
 C        -2.453955         0.045185         0.983444
 C        -3.125717         1.399243         0.530292
 O        -3.459249        -0.887146         0.464324
 C        -3.291222        -2.308434         0.687272
 C        -2.277802        -3.084805        -0.166584
 O        -1.980706        -4.283514        -0.021709
 H         1.059211        -1.921740        -1.454789
 H         1.856589        -0.352724        -1.245056
 H         1.705402        -1.396526         0.087440
 H        -2.321640        -0.122147         2.063245
 H        -4.152290         1.489878         0.951245
 H        -2.522271         2.348748         0.624705
 H        -3.327422         1.206768        -0.532137
 H        -2.859814        -2.502533         1.679149
 H        -4.370709        -2.596750         0.624579
 H        -1.761800        -2.342904        -0.920939
