19
Iteration:  3471charge 0 multiplicity 1
 C         1.380194        -0.751647        -0.480152
 C         0.008891        -0.632411        -0.006706
 C        -1.175471        -0.450835         0.221151
 C        -2.347948        -0.039204         0.908556
 C        -3.011079         1.308828         0.515227
 O        -3.511802        -0.945977         0.681433
 C        -3.245368        -2.295683         0.683865
 C        -2.564956        -2.997741        -0.492003
 O        -2.180289        -4.167498        -0.360137
 H         1.529243        -0.436831        -1.594458
 H         2.020625        -0.096051         0.205715
 H         1.480434        -1.823464        -0.468992
 H        -2.206627        -0.055533         1.992983
 H        -2.894438         2.066985         1.325417
 H        -2.741614         1.795876        -0.489474
 H        -4.064744         1.134620         0.445829
 H        -2.626749        -2.615425         1.591647
 H        -4.199432        -2.809664         0.828625
 H        -2.598962        -2.246127        -1.264428
