19
Iteration:  1001charge 0 multiplicity 1
 C         1.551003         0.139361        -0.207773
 C         0.120049        -0.192337        -0.111411
 C        -1.031328        -0.158118         0.189051
 C        -2.492204        -0.034637         0.426112
 C        -3.053480         0.965045        -0.598780
 O        -3.208172        -1.175702         0.034193
 C        -3.172701        -2.304472         1.013553
 C        -2.859421        -3.528423         0.179277
 O        -2.519572        -4.584551         0.765957
 H         2.032006        -0.344927        -1.058149
 H         1.639798         1.198286        -0.302538
 H         2.178620        -0.278178         0.640912
 H        -2.714655         0.329842         1.423074
 H        -3.967431         0.635341        -0.951938
 H        -3.327606         1.869774        -0.114120
 H        -2.409121         1.065878        -1.483875
 H        -2.277580        -2.332407         1.610618
 H        -4.096046        -2.353660         1.598896
 H        -3.004685        -3.487845        -0.910715
