19
Iteration:  1893charge 0 multiplicity 1
 C         1.357626        -0.301806        -0.307743
 C        -0.027193        -0.375878         0.051918
 C        -1.145919        -0.021068         0.118860
 C        -2.614308         0.221035         0.536178
 C        -3.136867         1.109249        -0.611458
 O        -3.242583        -1.117982         0.803324
 C        -2.531149        -2.341251         1.066686
 C        -2.816242        -3.412612         0.018148
 O        -2.547038        -4.615139         0.024164
 H         1.906165        -1.241058        -0.086096
 H         1.332515        -0.031347        -1.390944
 H         1.739100         0.508281         0.390223
 H        -2.614820         0.590500         1.551077
 H        -4.096717         1.576719        -0.432773
 H        -2.417261         1.963010        -0.696073
 H        -3.098098         0.616162        -1.528950
 H        -1.487246        -2.365514         1.250248
 H        -2.999183        -2.690598         1.996884
 H        -3.515311        -2.950469        -0.827546
