19
Iteration:   583
 C         1.688319         0.725079        -0.021602
 C         0.281575         0.278221        -0.205142
 C        -0.907340        -0.025988        -0.101853
 C        -2.327985        -0.095183         0.176319
 C        -3.045183         0.905034        -0.804524
 O        -2.935105        -1.397155         0.031476
 C        -2.819565        -2.400784         1.109944
 C        -3.411203        -3.776880         0.643934
 O        -3.109339        -4.991145         0.738091
 H         1.839438         0.884433         1.073816
 H         2.341255        -0.141173        -0.294815
 H         1.957671         1.561031        -0.568365
 H        -2.621270         0.253038         1.169357
 H        -4.035227         0.535497        -1.001255
 H        -3.160598         1.899431        -0.393352
 H        -2.503725         0.800773        -1.793845
 H        -1.682889        -2.437361         1.365465
 H        -3.331100        -2.228709         2.067728
 H        -4.450273        -3.471925         0.420537
