19
Iteration:  2736charge 0 multiplicity 1
 C         1.436252        -0.256164        -0.590751
 C         0.031708        -0.360355        -0.205616
 C        -1.006353        -0.285255         0.334320
 C        -2.383510         0.058984         0.706740
 C        -3.136031         1.135076        -0.152616
 O        -3.252022        -1.072571         0.884156
 C        -2.812312        -2.479221         1.012895
 C        -2.793739        -3.222878        -0.207042
 O        -2.688731        -4.438600        -0.110444
 H         2.202236        -1.115802        -0.505629
 H         1.494389         0.072364        -1.669882
 H         1.834693         0.450652         0.124459
 H        -2.186268         0.501914         1.699657
 H        -4.031104         1.475275         0.452985
 H        -2.553540         2.045329        -0.369899
 H        -3.703339         0.786478        -1.093513
 H        -2.123941        -2.699763         1.774507
 H        -3.709401        -2.921625         1.516228
 H        -3.055423        -2.716563        -1.151240
