19
Iteration:  1429charge 0 multiplicity 1
 C         1.640549         0.526565        -0.252069
 C         0.180585         0.299818        -0.199913
 C        -0.906059         0.182876         0.301337
 C        -2.398691        -0.077930         0.465806
 C        -3.183135         0.960269        -0.300116
 O        -2.541970        -1.497122         0.024732
 C        -2.652208        -2.509268         1.037411
 C        -3.238591        -3.767282         0.172355
 O        -3.488681        -4.881978         0.456302
 H         1.740867         1.572142         0.134888
 H         2.072511        -0.234264         0.377254
 H         1.961338         0.442612        -1.286359
 H        -2.682859        -0.012588         1.539435
 H        -3.896616         1.619651         0.338580
 H        -2.492438         1.558504        -0.959965
 H        -3.732019         0.487897        -1.157997
 H        -1.703566        -2.750806         1.599724
 H        -3.439193        -2.090064         1.665912
 H        -3.501021        -3.150195        -0.723134
