19
Iteration:   243
 C         1.613136         0.447428        -0.035812
 C         0.210780         0.162407        -0.061947
 C        -0.995027        -0.037871         0.077840
 C        -2.447257        -0.016532         0.046034
 C        -3.096859         0.968703        -1.059931
 O        -2.986924        -1.443152        -0.074585
 C        -2.391265        -2.512590         0.596634
 C        -3.444541        -3.650564         0.850153
 O        -3.120656        -4.741573         1.308311
 H         2.222154        -0.333308         0.579552
 H         1.961751         0.549647        -1.082895
 H         1.727871         1.457877         0.267946
 H        -2.682912         0.457061         1.111555
 H        -3.846345         0.594424        -1.776515
 H        -3.476853         1.780263        -0.465714
 H        -2.321242         1.325955        -1.680376
 H        -1.542669        -2.820835        -0.042525
 H        -2.054038        -2.334135         1.660225
 H        -4.517231        -3.291962         0.683253
