19
Iteration:  4939
 C         1.840366        -0.104730         0.531151
 C         0.429779        -0.297665         0.629092
 C        -0.753406        -0.291661         0.907302
 C        -2.258722        -0.382886         1.090816
 C        -2.992990         0.955383         1.359853
 O        -2.805447        -1.050184        -0.124552
 C        -2.539273        -2.492294        -0.190044
 C        -3.406543        -3.124549        -1.258477
 O        -4.084208        -4.123506        -1.033815
 H         2.493018        -0.091491         1.443161
 H         2.455429        -0.659160        -0.160236
 H         1.941741         0.880338        -0.015135
 H        -2.476334        -1.018341         1.997404
 H        -2.466586         1.605544         2.176808
 H        -2.996946         1.443673         0.417324
 H        -4.066659         0.689294         1.653606
 H        -1.433161        -2.585809        -0.417058
 H        -2.598747        -2.993228         0.746215
 H        -3.337016        -2.834031        -2.274726
