19
Iteration:  4045charge 0 multiplicity 1
 C         1.269029        -1.256712        -0.384390
 C        -0.060847        -0.849857         0.049669
 C        -1.123607        -0.641367         0.628459
 C        -2.478691        -0.114715         1.040909
 C        -2.752534         1.264390         0.627487
 O        -3.656709        -0.973236         0.677812
 C        -3.526320        -2.364402         0.510760
 C        -2.583483        -2.599545        -0.628076
 O        -1.761551        -3.517745        -0.766533
 H         1.087135        -1.763317        -1.349968
 H         1.928307        -0.375063        -0.503064
 H         1.573617        -1.917520         0.410069
 H        -2.624303        -0.349170         2.131251
 H        -2.412637         2.047187         1.345215
 H        -2.349418         1.411740        -0.368604
 H        -3.851641         1.480278         0.907354
 H        -3.207985        -2.816647         1.511153
 H        -4.587999        -2.723196         0.384976
 H        -2.620587        -1.577855        -1.284159
