19
Iteration:  2037
 C         1.196740        -0.995475        -0.510943
 C        -0.152918        -0.643440         0.010428
 C        -1.255607        -0.314489         0.450417
 C        -2.713622         0.093042         0.656919
 C        -3.251473         1.097811        -0.311416
 O        -3.575163        -1.034629         0.521908
 C        -2.839474        -2.146312         0.998470
 C        -2.225054        -2.925312        -0.161725
 O        -1.902191        -4.052821         0.132798
 H         1.624823        -0.133951        -1.094212
 H         1.769881        -1.327134         0.317758
 H         1.105410        -1.724076        -1.301624
 H        -2.763317         0.547431         1.651635
 H        -3.852410         1.841765         0.176793
 H        -2.523395         1.557033        -0.862763
 H        -3.879072         0.524774        -1.040098
 H        -1.979602        -1.879432         1.607732
 H        -3.438726        -2.736255         1.675542
 H        -2.370366        -2.461048        -1.255040
