19
Iteration:  1715charge 0 multiplicity 1
 C         1.708057         0.180816        -0.216159
 C         0.279617         0.112975         0.069674
 C        -0.929016         0.113644         0.128472
 C        -2.448344        -0.034959         0.328199
 C        -3.335923         1.244822         0.048481
 O        -2.997036        -1.294431        -0.304380
 C        -2.524730        -2.473391         0.413666
 C        -3.288439        -3.828006         0.268227
 O        -3.088021        -4.797860         0.909864
 H         2.139667         1.140528         0.169203
 H         2.391396        -0.681931         0.238054
 H         1.889516         0.266090        -1.329348
 H        -2.667443        -0.229591         1.395128
 H        -3.980120         1.269587         0.947694
 H        -2.755026         2.093254         0.235618
 H        -3.951366         1.291520        -0.899567
 H        -1.444151        -2.545975         0.064866
 H        -2.537852        -2.310033         1.517598
 H        -4.117694        -3.838513        -0.590827
