19
Iteration:  2881
 C         1.196526        -0.914056        -0.677035
 C        -0.095796        -0.428933        -0.147327
 C        -1.174913        -0.075166         0.245689
 C        -2.497942         0.081789         0.845581
 C        -3.148140         1.383053         0.457036
 O        -3.386919        -0.996888         0.373520
 C        -2.897350        -2.227813         0.848852
 C        -2.481885        -3.255628        -0.272307
 O        -2.221318        -4.399058         0.001226
 H         1.645385        -0.088405        -1.329879
 H         1.833021        -1.202343         0.141456
 H         0.989413        -1.748504        -1.434956
 H        -2.490660        -0.025001         1.957230
 H        -4.043463         1.595989         1.094424
 H        -2.379692         2.239459         0.687346
 H        -3.441055         1.327693        -0.584128
 H        -2.042741        -2.089878         1.507754
 H        -3.603343        -2.803555         1.550025
 H        -2.387079        -2.835150        -1.275578
