19
Iteration:  4047charge 0 multiplicity 1
 C         1.261459        -1.254436        -0.385624
 C        -0.055812        -0.830438         0.074394
 C        -1.117595        -0.627504         0.619252
 C        -2.489920        -0.144023         1.052399
 C        -2.751663         1.253183         0.630695
 O        -3.641668        -0.957124         0.671999
 C        -3.518990        -2.362075         0.507375
 C        -2.589137        -2.601515        -0.634107
 O        -1.771896        -3.518773        -0.768962
 H         1.101994        -1.794309        -1.263639
 H         1.849314        -0.435932        -0.554735
 H         1.695956        -1.900880         0.371266
 H        -2.551085        -0.376089         2.164764
 H        -2.445516         2.031600         1.247631
 H        -2.390212         1.353858        -0.374218
 H        -3.804274         1.490245         0.826095
 H        -3.245329        -2.822335         1.492724
 H        -4.576915        -2.726789         0.398080
 H        -2.711969        -1.587534        -1.226086
