19
Iteration:    84
 C         1.708326         0.242216        -0.169068
 C         0.290264         0.441897        -0.137428
 C        -0.910435         0.227807        -0.149390
 C        -2.344260        -0.166824         0.011509
 C        -3.105179         0.553507        -1.026943
 O        -2.878662        -1.536101        -0.093543
 C        -2.766769        -2.135181         1.157202
 C        -3.578411        -3.585313         1.004985
 O        -3.031895        -4.687341         0.983587
 H         2.316102         1.132726        -0.265480
 H         1.948648        -0.138173         0.864077
 H         1.958131        -0.468461        -1.059185
 H        -2.533796         0.238094         1.104186
 H        -4.127871         0.653314        -0.665436
 H        -2.730316         1.628574        -1.296769
 H        -3.063247        -0.210447        -1.895287
 H        -1.697112        -2.385995         1.397156
 H        -3.170208        -1.543284         2.065684
 H        -4.705161        -3.494102         1.149535
