19
Iteration:  1761
 C         1.594947         0.076345        -0.201668
 C         0.165985         0.114463        -0.164812
 C        -1.003131        -0.027597         0.155269
 C        -2.421713        -0.043081         0.480672
 C        -3.225205         1.048107        -0.192266
 O        -3.101009        -1.265966         0.059647
 C        -2.535382        -2.378424         0.720246
 C        -3.176926        -3.565214         0.185161
 O        -2.961323        -4.704755         0.591871
 H         2.155499         0.919913        -0.612325
 H         2.043784        -0.012275         0.861695
 H         2.052541        -0.793390        -0.761075
 H        -2.479329        -0.130726         1.585694
 H        -4.215699         0.671582        -0.358387
 H        -3.354299         1.993953         0.403011
 H        -2.742682         1.229757        -1.123683
 H        -1.405797        -2.522094         0.551569
 H        -2.726278        -2.330141         1.808134
 H        -3.975042        -3.413390        -0.646272
