19
Iteration:  4261charge 0 multiplicity 1
 C         1.372415        -1.002532        -0.057025
 C         0.052895        -0.596623         0.333618
 C        -1.111016        -0.394364         0.668474
 C        -2.454178        -0.116879         1.099981
 C        -2.945845         1.366401         0.975174
 O        -3.333088        -0.873409         0.237685
 C        -3.040414        -2.232442         0.460201
 C        -2.467284        -2.957067        -0.788533
 O        -2.745687        -4.109493        -1.086199
 H         1.699733        -0.264528        -0.804245
 H         2.112642        -1.020478         0.790190
 H         1.293317        -1.968447        -0.463752
 H        -2.391624        -0.614430         2.194664
 H        -2.147229         1.949592         1.402431
 H        -3.251445         1.391906        -0.066536
 H        -3.845649         1.542868         1.627303
 H        -2.074416        -2.337154         1.138529
 H        -4.058260        -2.629569         0.867605
 H        -1.818657        -2.316531        -1.535319
