19
Iteration:  4869
 C         1.819019        -0.142703         0.361985
 C         0.401121        -0.050873         0.757925
 C        -0.764649        -0.300334         1.084106
 C        -2.196563        -0.376583         1.131508
 C        -2.929925         0.952812         1.028713
 O        -2.757243        -1.226857         0.030528
 C        -2.556329        -2.578988         0.049035
 C        -3.632385        -3.004062        -1.079596
 O        -3.946856        -4.147876        -1.363133
 H         2.262678        -1.056769        -0.063392
 H         2.163405         0.656617        -0.368143
 H         2.498091         0.315436         1.120016
 H        -2.383250        -0.902574         2.084921
 H        -2.642582         1.611713         1.810335
 H        -2.680253         1.525311         0.055431
 H        -3.990335         0.814455         1.150838
 H        -1.547553        -2.998294        -0.199799
 H        -2.787990        -3.054202         1.011460
 H        -4.190844        -2.115784        -1.414198
