19
Iteration:  2709
 C         1.526798        -0.267344        -0.619072
 C         0.182292        -0.189312        -0.053602
 C        -1.034305        -0.287541         0.135495
 C        -2.395020         0.025310         0.710997
 C        -3.183647         1.020997        -0.140838
 O        -3.342245        -1.044817         0.845493
 C        -2.852152        -2.374466         1.196528
 C        -2.812384        -3.305334        -0.104159
 O        -2.751081        -4.489733        -0.269261
 H         1.792744        -1.196210        -1.042145
 H         1.618035         0.546059        -1.336546
 H         2.194202        -0.101120         0.273800
 H        -2.085474         0.382682         1.708654
 H        -3.954611         1.556869         0.410635
 H        -2.528109         1.773410        -0.630630
 H        -3.696494         0.462984        -0.867993
 H        -1.766169        -2.279839         1.594509
 H        -3.391344        -2.730991         2.112660
 H        -2.731438        -2.547265        -1.020529
