19
Iteration:  4493charge 0 multiplicity 1
 C         1.672475        -0.560439         0.161738
 C         0.286368        -0.412412         0.508751
 C        -0.867091        -0.025231         0.608762
 C        -2.232118        -0.225866         1.025896
 C        -2.866850         1.174035         1.003808
 O        -3.229641        -1.009582         0.226555
 C        -3.156453        -2.402412         0.396140
 C        -3.025333        -3.085024        -0.984966
 O        -3.155686        -4.290484        -1.125087
 H         2.342201         0.351331         0.141250
 H         2.048846        -1.280673         0.902914
 H         1.854871        -1.052245        -0.793181
 H        -2.181259        -0.680269         2.095630
 H        -2.384833         1.669513         1.929437
 H        -2.676951         1.729800        -0.005551
 H        -3.909764         1.276394         1.320994
 H        -2.409697        -2.575031         1.087239
 H        -3.986529        -3.000032         0.796782
 H        -3.131629        -2.391732        -1.867185
