19
Iteration:  4591
 C         1.410887        -0.670340        -0.018120
 C         0.192462        -0.403346         0.727917
 C        -0.956499        -0.329017         1.080186
 C        -2.373204        -0.063679         1.186380
 C        -2.986855         1.288780         0.884198
 O        -2.992081        -1.037414         0.163790
 C        -2.529215        -2.391353         0.248454
 C        -2.848833        -3.146307        -1.081167
 O        -3.491947        -4.174094        -1.182668
 H         1.301359        -1.414036        -0.847746
 H         1.842368         0.263618        -0.409019
 H         2.213132        -1.052011         0.618454
 H        -2.794328        -0.286701         2.161419
 H        -2.531679         1.956315         1.666006
 H        -3.005647         1.601068        -0.205562
 H        -3.997314         1.340254         1.275143
 H        -1.352631        -2.501415         0.319394
 H        -2.847926        -2.787039         1.223334
 H        -2.860114        -2.358709        -1.949602
