19
Iteration:  2750
 C         1.422513        -0.260455        -0.618272
 C         0.006002        -0.469196        -0.215600
 C        -1.022228        -0.153040         0.272534
 C        -2.384901         0.029113         0.769644
 C        -3.056655         1.066497        -0.081843
 O        -3.334226        -1.075211         0.892802
 C        -2.907382        -2.354230         1.030507
 C        -2.789090        -3.261095        -0.290148
 O        -2.623549        -4.440635        -0.092218
 H         2.015594        -1.105471        -0.169841
 H         1.553991        -0.128015        -1.682359
 H         1.700960         0.746273        -0.212237
 H        -2.388222         0.447725         1.801449
 H        -3.988376         1.337540         0.372806
 H        -2.330937         1.952195        -0.107131
 H        -3.085120         0.656542        -1.058423
 H        -1.840817        -2.393851         1.345205
 H        -3.593040        -2.861491         1.690407
 H        -2.798164        -2.787238        -1.258069
