19
Iteration:  2943
 C         1.160087        -1.032392        -0.658861
 C        -0.151972        -0.555396        -0.358201
 C        -1.121058        -0.098734         0.136408
 C        -2.411516         0.061593         0.841893
 C        -3.194174         1.332388         0.582310
 O        -3.473351        -0.921189         0.464721
 C        -3.176342        -2.249891         0.801979
 C        -2.186562        -3.082689        -0.118016
 O        -2.114128        -4.297054        -0.060509
 H         1.203837        -1.433376        -1.718217
 H         2.031968        -0.302299        -0.551626
 H         1.405923        -1.860982        -0.019467
 H        -2.190197        -0.108461         1.922361
 H        -4.224752         1.105815         0.826934
 H        -2.804210         2.208083         1.174835
 H        -3.211244         1.588040        -0.464396
 H        -2.825174        -2.418764         1.854162
 H        -4.211262        -2.612118         0.598914
 H        -1.638664        -2.371815        -0.907915
