19
Iteration:  1512charge 0 multiplicity 1
 C         1.552682         0.731587        -0.191825
 C         0.320471         0.159183         0.115253
 C        -0.910321         0.021633         0.056782
 C        -2.307682        -0.222549         0.327172
 C        -3.122423         1.042103        -0.020858
 O        -2.782871        -1.422837        -0.281166
 C        -2.453461        -2.564117         0.599902
 C        -3.252485        -3.810126         0.193041
 O        -3.627721        -4.768043         0.865658
 H         1.689430         1.112937        -1.234747
 H         1.741220         1.622977         0.392073
 H         2.505076         0.133927        -0.051270
 H        -2.343756        -0.406979         1.427057
 H        -4.043094         0.695319        -0.538720
 H        -3.479396         1.367966         0.978430
 H        -2.739635         1.795415        -0.705525
 H        -1.352476        -2.775526         0.507124
 H        -2.529754        -2.232663         1.680156
 H        -3.669395        -3.791767        -0.836540
