19
Iteration:  4642charge 0 multiplicity 1
 C         1.514813        -0.618387         0.190159
 C         0.182402        -0.372031         0.581845
 C        -0.938023        -0.171425         0.975110
 C        -2.296833        -0.201902         1.201753
 C        -2.986139         1.168107         0.843666
 O        -2.950057        -1.076906         0.323183
 C        -2.488310        -2.437171         0.184033
 C        -3.194552        -2.974968        -1.128606
 O        -3.450507        -4.164119        -1.205956
 H         1.822474        -1.636262         0.489917
 H         1.641466        -0.806051        -0.961612
 H         2.315509         0.096066         0.509578
 H        -2.496984        -0.526556         2.303808
 H        -2.810255         1.902990         1.614217
 H        -2.659232         1.630037        -0.186169
 H        -4.093746         1.054861         0.796560
 H        -1.429526        -2.653674         0.137515
 H        -2.990832        -2.824333         1.096117
 H        -3.281556        -2.287983        -1.964969
