19
Iteration:  2996
 C         1.086974        -1.003094        -0.877652
 C        -0.068880        -0.492496        -0.024378
 C        -1.200230        -0.242719         0.425850
 C        -2.598567        -0.057651         0.795898
 C        -2.915180         1.433706         0.489126
 O        -3.489674        -0.988256         0.385099
 C        -3.255370        -2.343560         0.731768
 C        -2.354437        -3.061348        -0.221018
 O        -1.913592        -4.157114         0.030559
 H         1.007577        -2.090603        -1.110924
 H         1.104885        -0.251753        -1.753370
 H         2.059076        -0.832777        -0.331227
 H        -2.552222        -0.124920         1.923975
 H        -3.566382         1.753233         1.287323
 H        -1.974284         1.986916         0.588251
 H        -3.406330         1.648030        -0.445596
 H        -2.766333        -2.491698         1.722687
 H        -4.264152        -2.711142         0.690239
 H        -2.358649        -2.555301        -1.134710
