19
Iteration:   411charge 0 multiplicity 1
 C         1.531655         0.247036         0.047015
 C         0.110871        -0.106443         0.258345
 C        -1.106146         0.072664         0.106987
 C        -2.592219        -0.053643         0.170954
 C        -3.517970         0.911321        -0.727645
 O        -2.745040        -1.455027        -0.343109
 C        -2.077572        -2.568733         0.315920
 C        -3.094996        -3.615974         0.395866
 O        -3.201507        -4.225512         1.475448
 H         1.555235         0.877952        -0.831881
 H         1.912743         0.787138         0.928043
 H         2.221593        -0.688905        -0.013125
 H        -2.987198        -0.047782         1.166454
 H        -4.258638         0.336495        -1.197763
 H        -3.986622         1.655180        -0.065489
 H        -2.878266         1.502082        -1.402706
 H        -1.268541        -2.937459        -0.341973
 H        -1.653415        -2.500492         1.361585
 H        -3.414832        -3.945158        -0.579954
