19
Iteration:  1815
 C         1.515161        -0.038297        -0.399265
 C         0.080813        -0.123527         0.146341
 C        -1.077127         0.136914         0.213959
 C        -2.495930         0.111379         0.571296
 C        -3.153804         1.021226        -0.497023
 O        -3.096021        -1.178038         0.444223
 C        -2.520223        -2.390439         0.939761
 C        -3.087959        -3.577184         0.039361
 O        -2.850472        -4.737634         0.299896
 H         1.410497        -0.174501        -1.458525
 H         1.945735         0.970832        -0.054635
 H         2.229166        -0.840274        -0.024022
 H        -2.625400         0.367937         1.622656
 H        -4.196433         0.871167        -0.512600
 H        -2.810053         2.053708        -0.247441
 H        -2.874773         0.821179        -1.492039
 H        -1.440974        -2.502795         0.830190
 H        -2.806767        -2.538684         1.994123
 H        -3.676873        -3.281996        -0.798499
