19
Iteration:  1110charge 0 multiplicity 1
 C         1.510454        -0.126096        -0.008147
 C         0.021869        -0.074036         0.013474
 C        -1.195204         0.013450         0.238854
 C        -2.642735         0.032379         0.275208
 C        -3.251365         1.161701        -0.573718
 O        -3.105984        -1.292673        -0.073181
 C        -2.488749        -2.248213         0.794663
 C        -3.129778        -3.612111         0.527191
 O        -2.474477        -4.652503         0.519603
 H         1.875610        -0.184402         1.043076
 H         1.797014        -1.056999        -0.424986
 H         2.087818         0.694335        -0.550378
 H        -2.886478         0.205152         1.345243
 H        -3.945678         1.779925        -0.030909
 H        -2.442248         1.793686        -0.965466
 H        -3.704249         0.756252        -1.548936
 H        -1.429129        -2.300515         0.634121
 H        -2.630719        -1.931883         1.882097
 H        -4.177315        -3.624084         0.184892
