19
Iteration:  3573
 C         1.043908        -0.939422        -0.735805
 C        -0.075772        -0.640094         0.220149
 C        -1.044785        -0.082894         0.755453
 C        -2.538117        -0.004507         1.023255
 C        -3.012664         1.501761         0.719783
 O        -3.379412        -0.890213         0.212849
 C        -3.066275        -2.260032         0.452165
 C        -2.174643        -3.206945        -0.430211
 O        -2.379888        -4.396894        -0.357308
 H         1.313628        -2.021571        -0.571921
 H         0.739165        -0.804841        -1.740233
 H         1.854269        -0.167190        -0.492078
 H        -2.798679        -0.078982         2.072103
 H        -2.221877         2.221680         0.868677
 H        -3.268300         1.748238        -0.266749
 H        -3.923906         1.751517         1.338651
 H        -2.358548        -2.343385         1.354722
 H        -4.016267        -2.857937         0.643809
 H        -1.596241        -2.476753        -1.044271
