19
Iteration:  2085
 C         1.002679        -1.230600        -0.560656
 C        -0.200443        -0.551439        -0.032227
 C        -1.272946        -0.108143         0.161353
 C        -2.594983         0.152993         0.702383
 C        -3.134218         1.308373        -0.206717
 O        -3.555796        -1.039115         0.541791
 C        -3.256004        -2.380021         0.965371
 C        -2.273222        -3.058063         0.015729
 O        -1.442833        -3.961639         0.152334
 H         1.001770        -1.224120        -1.663979
 H         1.885749        -0.716553        -0.076731
 H         1.021617        -2.324170        -0.307337
 H        -2.597713         0.423828         1.769953
 H        -4.164577         1.575447         0.085702
 H        -2.495391         2.257591         0.036817
 H        -3.076942         1.084563        -1.242214
 H        -3.168535        -2.699476         2.008984
 H        -4.211354        -2.768357         0.624998
 H        -2.288556        -2.385831        -0.950533
