19
Iteration:  2224
 C         1.010046        -1.342786        -0.719841
 C        -0.248355        -0.753298        -0.377283
 C        -1.142596        -0.219290         0.369055
 C        -2.569891         0.018822         0.717366
 C        -3.357703         1.272371         0.425049
 O        -3.498675        -0.915955         0.081954
 C        -3.290212        -2.239904         0.409441
 C        -2.106613        -2.974857        -0.033743
 O        -1.519808        -3.730420         0.778496
 H         1.593770        -1.815819         0.104454
 H         0.941397        -1.961964        -1.591737
 H         1.664855        -0.651118        -1.152268
 H        -2.511513        -0.182852         1.814700
 H        -4.032850         1.427975         1.228503
 H        -2.661177         2.150018         0.297782
 H        -3.909267         1.146696        -0.458276
 H        -3.266917        -2.365814         1.540897
 H        -4.247640        -2.761969         0.054977
 H        -1.633199        -2.954142        -1.152587
