19
Iteration:  4645
 C         1.538760        -0.595728         0.198712
 C         0.192424        -0.393612         0.565267
 C        -0.920472        -0.186525         0.973133
 C        -2.309219        -0.178525         1.207024
 C        -2.999556         1.162608         0.839763
 O        -2.956581        -1.086341         0.317563
 C        -2.512514        -2.440009         0.196250
 C        -3.191084        -2.980172        -1.116137
 O        -3.451226        -4.165473        -1.216112
 H         1.832948        -1.583230         0.529493
 H         1.651778        -0.899978        -0.852454
 H         2.308247         0.097134         0.464593
 H        -2.468959        -0.455379         2.235819
 H        -2.808155         1.917631         1.588870
 H        -2.726224         1.745070        -0.069702
 H        -4.056178         1.076817         0.822027
 H        -1.410440        -2.654376         0.000680
 H        -2.928945        -2.838338         1.102493
 H        -3.321136        -2.235118        -1.927726
