19
Iteration:  2987
 C         1.088774        -1.006686        -0.800157
 C        -0.117501        -0.472698        -0.123218
 C        -1.146812        -0.239000         0.398096
 C        -2.494123         0.008024         0.808681
 C        -3.007777         1.429240         0.506488
 O        -3.476910        -1.020254         0.414859
 C        -3.230093        -2.366858         0.749717
 C        -2.311507        -3.020760        -0.216899
 O        -1.977019        -4.181422         0.026490
 H         1.012716        -1.990802        -1.407112
 H         1.467112        -0.366444        -1.693666
 H         1.996259        -1.085093        -0.234265
 H        -2.531174         0.072359         1.931392
 H        -3.741972         1.725452         1.252149
 H        -2.080492         2.090631         0.601502
 H        -3.417418         1.673565        -0.439798
 H        -3.144055        -2.591054         1.856992
 H        -4.171419        -2.904549         0.385200
 H        -2.334738        -2.573165        -1.260709
