19
Iteration:  2003
 C         1.257905        -0.816335        -0.332344
 C        -0.156747        -0.580740        -0.042699
 C        -1.302667        -0.084325         0.129677
 C        -2.583045         0.281684         0.595059
 C        -3.297572         1.173522        -0.443596
 O        -3.433529        -0.994562         0.776373
 C        -2.844099        -2.310980         1.169423
 C        -2.328248        -3.179369        -0.079174
 O        -2.034867        -4.337224        -0.064466
 H         1.891588         0.021608         0.031865
 H         1.751922        -1.683158         0.092918
 H         1.467454        -1.042893        -1.378692
 H        -2.590574         0.722128         1.597748
 H        -4.039467         1.876517        -0.036943
 H        -2.517840         1.686317        -0.964610
 H        -3.800692         0.507668        -1.155566
 H        -2.070118        -2.327995         1.921145
 H        -3.789348        -2.730760         1.548723
 H        -2.596214        -2.726837        -1.070574
