19
Iteration:   694charge 0 multiplicity 1
 C         1.513038         0.226598        -0.296730
 C         0.129799         0.159029         0.044979
 C        -1.063076         0.303571         0.287257
 C        -2.541926         0.050987         0.402886
 C        -2.994118         0.824549        -0.694287
 O        -2.908654        -1.327138         0.005580
 C        -2.705741        -2.380211         0.918992
 C        -3.171836        -3.712809         0.327111
 O        -2.927113        -4.853026         0.788176
 H         1.608168         0.588542        -1.324576
 H         1.956606         1.076179         0.267524
 H         2.063209        -0.684319        -0.129549
 H        -2.962210         0.347311         1.352954
 H        -4.039826         1.229339        -0.634221
 H        -2.360210         1.593706        -1.137666
 H        -3.018354         0.180223        -1.520768
 H        -1.627787        -2.467187         1.307395
 H        -3.334661        -2.183117         1.818863
 H        -3.758877        -3.687605        -0.640033
