19
Iteration:  1406
 C         1.653078         0.451716        -0.350795
 C         0.228041         0.269842         0.093109
 C        -0.990507         0.153395         0.272206
 C        -2.378438        -0.117378         0.409882
 C        -3.251531         0.917171        -0.409152
 O        -2.592633        -1.529069         0.109779
 C        -2.694757        -2.538519         1.043325
 C        -3.279200        -3.592361         0.176944
 O        -3.344478        -4.765009         0.423866
 H         2.146360         1.195294         0.340139
 H         2.172679        -0.477842        -0.447046
 H         1.535891         0.928567        -1.353993
 H        -2.565150         0.028521         1.497911
 H        -3.504462         1.760048         0.340311
 H        -2.703316         1.370213        -1.314976
 H        -4.088666         0.476332        -0.890812
 H        -1.697789        -2.876450         1.427324
 H        -3.405690        -2.305118         1.851918
 H        -3.191573        -3.158042        -0.885177
