19
Iteration:  1808
 C         1.454321        -0.006394        -0.335355
 C         0.118317        -0.155953         0.097668
 C        -1.119762         0.153941         0.163440
 C        -2.476287         0.136723         0.553655
 C        -3.119512         1.100552        -0.484344
 O        -3.087959        -1.255086         0.402809
 C        -2.475535        -2.412865         0.982117
 C        -3.082992        -3.606921         0.085799
 O        -2.895845        -4.767075         0.294207
 H         1.550875         0.069470        -1.475435
 H         2.010394         0.834324         0.005138
 H         2.164378        -0.801449        -0.132637
 H        -2.640992         0.514513         1.605670
 H        -4.242434         0.957305        -0.490541
 H        -3.004501         2.148698        -0.089604
 H        -2.725387         0.978516        -1.518248
 H        -1.317451        -2.357993         0.892067
 H        -2.759963        -2.499283         2.040024
 H        -3.736808        -3.229543        -0.808063
