19
Iteration:  4714charge 0 multiplicity 1
 C         1.765543        -0.395009         0.446800
 C         0.354342        -0.275610         0.547126
 C        -0.851743        -0.291324         0.548022
 C        -2.262102        -0.285540         1.093214
 C        -2.807529         1.155508         1.072528
 O        -3.153875        -1.091340         0.263729
 C        -2.830740        -2.433736         0.132958
 C        -3.572506        -3.048427        -1.032597
 O        -3.276324        -4.197757        -1.264508
 H         2.320203        -0.066666         1.332354
 H         1.953471        -1.401436         0.763760
 H         2.333882        -0.115767        -0.424482
 H        -2.352686        -0.723024         2.084693
 H        -2.009865         1.798365         1.523445
 H        -2.908541         1.462424         0.073379
 H        -3.787965         1.302978         1.576670
 H        -1.715475        -2.372279        -0.152723
 H        -3.022297        -3.036751         1.003212
 H        -4.345741        -2.536518        -1.596653
