19
Iteration:   634charge 0 multiplicity 1
 C         1.602158         0.568966        -0.241337
 C         0.252655         0.250354         0.139619
 C        -0.933461        -0.040387         0.127106
 C        -2.397479        -0.252733         0.277913
 C        -3.028475         0.757388        -0.652588
 O        -2.899097        -1.497793        -0.193131
 C        -2.864740        -2.329543         0.964027
 C        -3.457870        -3.592066         0.645965
 O        -2.866237        -4.663128         0.716049
 H         1.697723         1.702273        -0.413671
 H         2.387521         0.040411         0.369861
 H         1.684546         0.265735        -1.361165
 H        -2.852585        -0.175170         1.285398
 H        -4.032831         0.513802        -0.981435
 H        -3.056495         1.784774        -0.199364
 H        -2.424269         0.480118        -1.591431
 H        -1.958182        -2.457856         1.457642
 H        -3.592384        -1.761270         1.609331
 H        -4.524204        -3.397578         0.260608
