19
Iteration:  4057charge 0 multiplicity 1
 C         1.240205        -1.259627        -0.382533
 C        -0.018572        -0.784934         0.170576
 C        -1.159897        -0.566534         0.587434
 C        -2.466805        -0.252562         1.138395
 C        -2.773798         1.226523         0.624685
 O        -3.613249        -0.915231         0.629719
 C        -3.507238        -2.348342         0.547256
 C        -2.600518        -2.612377        -0.638291
 O        -1.822074        -3.512418        -0.789588
 H         1.101658        -1.948565        -1.191379
 H         1.788607        -0.449536        -0.802324
 H         1.935547        -1.724504         0.288584
 H        -2.330394        -0.226102         2.251276
 H        -2.164640         1.950163         1.115827
 H        -2.498901         1.265433        -0.428788
 H        -3.867322         1.370391         0.513031
 H        -3.136890        -2.884512         1.464444
 H        -4.525110        -2.697066         0.213925
 H        -2.737725        -1.819805        -1.526506
