19
Iteration:  1856charge 0 multiplicity 1
 C         1.518120        -0.244736        -0.432121
 C         0.150585         0.087568         0.012228
 C        -1.015329        -0.161059         0.552606
 C        -2.534026         0.027101         0.582509
 C        -3.201656         0.869472        -0.519958
 O        -3.349440        -1.120423         0.572999
 C        -2.643087        -2.285245         0.843374
 C        -2.961907        -3.390320        -0.007158
 O        -2.635773        -4.562049         0.219987
 H         1.558296        -1.186011        -0.957012
 H         2.030884         0.478516        -1.118519
 H         2.277120        -0.279454         0.372276
 H        -2.713870         0.623468         1.506874
 H        -4.192002         1.282436        -0.205596
 H        -2.558556         1.627103        -1.005975
 H        -3.435823         0.019835        -1.278941
 H        -1.583623        -2.006179         0.652621
 H        -2.712557        -2.602969         1.921940
 H        -3.518014        -3.084269        -1.007328
