19
Iteration:  4592
 C         1.401776        -0.673719        -0.016346
 C         0.198059        -0.394099         0.729569
 C        -0.947439        -0.329431         1.088583
 C        -2.375109        -0.064967         1.171455
 C        -2.983492         1.278467         0.883010
 O        -2.991252        -1.040784         0.169471
 C        -2.526000        -2.384946         0.249339
 C        -2.857482        -3.145544        -1.080131
 O        -3.492067        -4.174272        -1.186262
 H         1.330677        -1.430879        -0.859666
 H         1.842882         0.231469        -0.436769
 H         2.218283        -1.012582         0.640953
 H        -2.809639        -0.301386         2.179291
 H        -2.533112         2.003459         1.671996
 H        -3.020258         1.620393        -0.186582
 H        -4.017411         1.346025         1.259429
 H        -1.367768        -2.468664         0.296963
 H        -2.851290        -2.810868         1.218446
 H        -2.855096        -2.371489        -1.937130
