19
Iteration:  3641
 C         1.329397        -0.938088        -0.537851
 C         0.026980        -0.506690        -0.119783
 C        -0.955665        -0.172094         0.547972
 C        -2.469762        -0.091371         0.983704
 C        -2.978164         1.292624         0.802360
 O        -3.478132        -0.919569         0.276643
 C        -3.387260        -2.306193         0.558279
 C        -2.548445        -3.008707        -0.403515
 O        -2.194634        -4.193395        -0.373220
 H         2.003411        -0.492967         0.153878
 H         1.237742        -1.986933        -0.354457
 H         1.675741        -0.557580        -1.545463
 H        -2.460590        -0.317443         2.047029
 H        -2.731421         1.928016         1.639948
 H        -2.571202         1.764436        -0.128077
 H        -3.980226         1.030444         0.646188
 H        -2.818677        -2.588076         1.528148
 H        -4.341811        -2.897039         0.857573
 H        -2.298073        -2.503935        -1.373181
