19
Iteration:  4492charge 0 multiplicity 1
 C         1.683358        -0.563103         0.166463
 C         0.285242        -0.411221         0.506632
 C        -0.865666        -0.018931         0.596989
 C        -2.238436        -0.225672         1.027930
 C        -2.867164         1.171942         1.004722
 O        -3.231583        -1.006589         0.230219
 C        -3.160025        -2.401856         0.387620
 C        -3.032034        -3.080752        -0.981625
 O        -3.150117        -4.292307        -1.123534
 H         2.309005         0.370575         0.172259
 H         2.074484        -1.322008         0.894869
 H         1.857236        -1.008800        -0.816664
 H        -2.232994        -0.686554         2.112579
 H        -2.326597         1.639034         1.898546
 H        -2.644619         1.718854        -0.021795
 H        -3.921421         1.243118         1.354255
 H        -2.429406        -2.633094         1.100209
 H        -3.985793        -2.978299         0.800260
 H        -3.124019        -2.406786        -1.833175
