19
Iteration:  2066charge 0 multiplicity 1
 C         1.040699        -1.120655        -0.552360
 C        -0.138912        -0.541408        -0.002516
 C        -1.280442        -0.209924         0.348830
 C        -2.652949         0.096712         0.610015
 C        -3.163950         1.235646        -0.257412
 O        -3.531012        -1.013398         0.514347
 C        -3.205559        -2.319713         1.038065
 C        -2.209231        -2.980397        -0.007984
 O        -1.587852        -4.044084         0.071242
 H         1.182822        -0.678772        -1.510883
 H         1.924322        -0.987353         0.128830
 H         0.760193        -2.218963        -0.674890
 H        -2.601809         0.518931         1.654663
 H        -3.972182         1.896122         0.195784
 H        -2.307889         1.966287        -0.479211
 H        -3.539241         0.800932        -1.208843
 H        -2.616722        -2.155881         1.985941
 H        -4.174299        -2.897085         1.254434
 H        -2.256134        -2.444510        -0.903108
