19
Iteration:   542
 C         1.660377         0.655298         0.024208
 C         0.249986         0.243183        -0.035171
 C        -0.908451        -0.180146         0.009349
 C        -2.420003        -0.130196         0.139761
 C        -3.265702         0.720345        -0.810173
 O        -2.893524        -1.423774         0.007026
 C        -2.450290        -2.475053         0.883395
 C        -3.339548        -3.555141         0.448462
 O        -3.220179        -4.678121         0.949329
 H         2.204724         0.194060         0.811393
 H         2.136655         0.486966        -0.928959
 H         1.740981         1.721893         0.332740
 H        -2.518030         0.225877         1.212802
 H        -4.283634         0.894356        -0.395347
 H        -2.873762         1.708342        -0.956943
 H        -3.487253         0.221572        -1.728586
 H        -1.380120        -2.806525         0.830025
 H        -2.764692        -2.202262         1.870579
 H        -4.129526        -3.388734        -0.331971
