19
Iteration:  2552charge 0 multiplicity 1
 C         1.324543        -0.542318        -0.654905
 C         0.005861        -0.198307        -0.096019
 C        -0.987607         0.204133         0.423115
 C        -2.411815         0.126220         0.684675
 C        -3.351265         1.148331        -0.036229
 O        -3.041004        -1.129102         0.422188
 C        -2.708159        -2.413865         1.038533
 C        -2.442426        -3.434617        -0.078784
 O        -2.994588        -4.531749         0.050275
 H         2.119402         0.136842        -0.171666
 H         1.780296        -1.517014        -0.473330
 H         1.214562        -0.337776        -1.705976
 H        -2.513443         0.330701         1.757102
 H        -4.246325         1.378440         0.589720
 H        -2.785650         2.002594        -0.242964
 H        -3.815154         0.715726        -0.993920
 H        -1.848601        -2.075184         1.661132
 H        -3.643847        -2.773421         1.518930
 H        -1.697092        -3.174278        -0.936871
