19
Iteration:  1280charge 0 multiplicity 1
 C         1.611188         0.267051         0.007889
 C         0.219137         0.000567         0.099437
 C        -0.991274        -0.051626         0.134971
 C        -2.425882        -0.084907         0.350898
 C        -3.217334         1.072594        -0.302808
 O        -3.157810        -1.278609        -0.031490
 C        -2.548063        -2.383732         0.441773
 C        -3.300359        -3.708225         0.207567
 O        -2.800237        -4.663954         0.755752
 H         2.046465        -0.584861        -0.560775
 H         1.718223         1.273360        -0.600551
 H         2.032212         0.387613         1.041439
 H        -2.585351        -0.036272         1.469490
 H        -3.643723         0.753948        -1.261974
 H        -4.171554         1.256445         0.205109
 H        -2.716032         2.064208        -0.516947
 H        -1.485164        -2.500719         0.186717
 H        -2.655596        -2.413566         1.567133
 H        -4.232490        -3.688915        -0.465076
