19
Iteration:  4263charge 0 multiplicity 1
 C         1.359812        -0.987029        -0.057356
 C         0.054796        -0.595748         0.362525
 C        -1.117977        -0.395739         0.659238
 C        -2.441981        -0.133501         1.099114
 C        -2.924760         1.362444         0.983850
 O        -3.330445        -0.875813         0.231257
 C        -3.042010        -2.230749         0.457724
 C        -2.466133        -2.956710        -0.813943
 O        -2.755416        -4.105730        -1.071469
 H         1.606820        -0.242848        -0.838521
 H         2.113151        -0.961218         0.780789
 H         1.322452        -2.002355        -0.444777
 H        -2.367459        -0.567817         2.204179
 H        -2.163144         1.986974         1.319463
 H        -3.279231         1.380768        -0.049144
 H        -3.833640         1.532041         1.575292
 H        -2.156836        -2.397883         1.182200
 H        -3.956598        -2.626246         0.845694
 H        -1.835457        -2.347743        -1.547272
