19
Iteration:  1913charge 0 multiplicity 1
 C         1.434255        -0.379486        -0.261095
 C        -0.018123        -0.530267        -0.056178
 C        -1.182596        -0.120941         0.206417
 C        -2.568003         0.168606         0.425853
 C        -3.308318         1.132529        -0.564618
 O        -3.249591        -1.052192         0.792679
 C        -2.568377        -2.291238         1.170123
 C        -2.793044        -3.335679        -0.000660
 O        -2.470218        -4.529154        -0.027444
 H         1.988046        -1.015437         0.397316
 H         1.702231        -0.574410        -1.369199
 H         1.775419         0.683671        -0.011242
 H        -2.481651         0.747838         1.425007
 H        -4.353327         0.909542        -0.335685
 H        -2.961879         2.249594        -0.413359
 H        -3.198793         0.933147        -1.625230
 H        -1.503524        -2.097115         1.277994
 H        -2.953341        -2.676365         2.170832
 H        -3.297898        -2.803847        -0.865283
