19
Iteration:  2934
 C         1.184461        -1.035595        -0.666063
 C        -0.106337        -0.560986        -0.326566
 C        -1.183214        -0.091565         0.126833
 C        -2.453586         0.045202         0.762425
 C        -3.210511         1.465423         0.617460
 O        -3.411934        -0.992332         0.435862
 C        -3.088450        -2.363675         0.818165
 C        -2.226420        -3.043579        -0.079461
 O        -2.168454        -4.249401        -0.055746
 H         1.329602        -1.253077        -1.777154
 H         2.048221        -0.404053        -0.388869
 H         1.312598        -1.942448        -0.160979
 H        -2.247561        -0.143838         1.829411
 H        -4.267288         1.291422         0.882110
 H        -2.887421         2.423458         1.200573
 H        -3.116083         1.738561        -0.418361
 H        -2.906881        -2.474177         1.891375
 H        -4.036837        -3.020467         0.765834
 H        -1.774639        -2.529150        -1.027149
