19
Iteration:   492
 C         1.579029         0.469925         0.002056
 C         0.169341         0.274744         0.154602
 C        -1.047812         0.208425         0.109450
 C        -2.518369        -0.109326         0.173447
 C        -3.200830         0.941471        -0.793064
 O        -2.844461        -1.523378        -0.138769
 C        -2.285168        -2.599170         0.540843
 C        -3.199764        -3.830984         0.340881
 O        -3.301755        -4.556351         1.295791
 H         2.044939        -0.517186        -0.277585
 H         1.762359         1.184690        -0.819019
 H         2.111414         0.713090         0.951032
 H        -2.789971         0.009253         1.225838
 H        -4.062342         1.548655        -0.356973
 H        -2.544905         1.767286        -1.132291
 H        -3.654761         0.390565        -1.616568
 H        -1.298853        -2.822270        -0.006637
 H        -2.145558        -2.562686         1.668856
 H        -3.904121        -3.922783        -0.537842
