19
Iteration:  3723
 C         1.399056        -0.660995        -0.317377
 C        -0.040424        -0.722722        -0.163698
 C        -1.195578        -0.690328         0.266746
 C        -2.452458        -0.231478         0.999107
 C        -2.632949         1.267758         0.760131
 O        -3.628495        -0.930884         0.345864
 C        -3.490758        -2.303899         0.658684
 C        -2.666204        -2.891908        -0.477443
 O        -2.013498        -3.907808        -0.376717
 H         1.576690         0.097525        -1.131404
 H         1.955064        -0.277481         0.555894
 H         1.632033        -1.644636        -0.563477
 H        -2.465209        -0.372566         2.081373
 H        -1.761493         1.874068         0.498713
 H        -3.404869         1.270801         0.018284
 H        -3.081146         1.812328         1.676973
 H        -3.020895        -2.693471         1.587203
 H        -4.409892        -2.826019         0.332778
 H        -2.645226        -2.220820        -1.376643
