19
Iteration:  3371charge 0 multiplicity 1
 C         1.457525        -0.836433        -0.483314
 C         0.035087        -0.687017        -0.038178
 C        -1.083568        -0.409259         0.367349
 C        -2.467664        -0.059212         0.859435
 C        -3.060948         1.206938         0.340757
 O        -3.544599        -0.973308         0.672755
 C        -3.321064        -2.299476         0.793431
 C        -2.807234        -3.041289        -0.493037
 O        -1.929224        -3.900844        -0.332383
 H         2.207162        -0.508611         0.283829
 H         1.574282        -1.955507        -0.747590
 H         1.572066        -0.187057        -1.350346
 H        -2.397222        -0.047688         1.969736
 H        -2.240613         1.825540        -0.054037
 H        -3.882887         1.066000        -0.378935
 H        -3.332683         1.868532         1.198722
 H        -2.457403        -2.459321         1.519938
 H        -4.147422        -2.850931         1.274684
 H        -3.181160        -2.453188        -1.404285
