19
Iteration:  2841
 C         1.225701        -0.736762        -0.692129
 C        -0.039032        -0.390719        -0.145678
 C        -1.012037        -0.036678         0.436599
 C        -2.390719         0.158389         0.837129
 C        -3.201868         1.257773         0.237838
 O        -3.312516        -0.935096         0.562707
 C        -2.954604        -2.287221         0.868024
 C        -2.663828        -3.347466        -0.244597
 O        -2.295499        -4.500926        -0.103732
 H         1.956045        -0.009962        -0.489970
 H         1.722280        -1.685158        -0.518920
 H         1.128387        -0.807890        -1.808240
 H        -2.287564         0.303548         1.926064
 H        -4.089061         1.338685         0.860286
 H        -2.803209         2.203428         0.172657
 H        -3.455660         0.972863        -0.786159
 H        -2.086321        -2.330222         1.579537
 H        -3.845427        -2.622874         1.375732
 H        -2.915264        -3.000279        -1.294942
