19
Iteration:  4954charge 0 multiplicity 1
 C         1.903357        -0.071050         0.514718
 C         0.386237        -0.219671         0.634602
 C        -0.800353        -0.393094         0.823869
 C        -2.246745        -0.443121         1.053043
 C        -2.956326         0.924295         1.373587
 O        -2.877426        -0.980088        -0.113503
 C        -2.482282        -2.413543        -0.202118
 C        -3.341360        -3.205920        -1.229440
 O        -4.103096        -4.121038        -1.014205
 H         2.070622         0.158059         1.560137
 H         2.118990        -1.174663         0.382734
 H         2.250865         0.772507        -0.122503
 H        -2.492744        -1.239623         1.875501
 H        -2.487152         1.341989         2.264245
 H        -2.613667         1.807724         0.658834
 H        -4.045160         0.717089         1.633514
 H        -1.404357        -2.550566        -0.559230
 H        -2.785855        -2.864026         0.855772
 H        -3.362224        -2.686115        -2.259634
