19
Iteration:  2378
 C         1.423163        -0.355044        -0.823729
 C         0.144071        -0.240657        -0.035246
 C        -1.107114        -0.495426         0.167570
 C        -2.521678        -0.215486         0.643926
 C        -2.858368         1.204954         0.266324
 O        -3.602095        -1.042268         0.114829
 C        -3.457931        -2.307765         0.766097
 C        -2.498946        -3.203417         0.025967
 O        -2.176486        -4.270801         0.604627
 H         1.253028        -0.297007        -1.935638
 H         2.068466         0.502538        -0.668559
 H         1.965060        -1.260289        -0.635155
 H        -2.523113        -0.471418         1.717588
 H        -3.588899         1.659905         0.962650
 H        -1.954271         1.856595         0.242484
 H        -3.245454         1.122493        -0.743813
 H        -3.153493        -2.352814         1.801619
 H        -4.493456        -2.641845         0.664747
 H        -2.197834        -2.965143        -1.113258
