19
Iteration:   656charge 0 multiplicity 1
 C         1.523548         0.459126        -0.344974
 C         0.175106         0.174581         0.182824
 C        -0.983827        -0.134977         0.379475
 C        -2.400626        -0.072286         0.182445
 C        -3.118777         0.881935        -0.763465
 O        -2.752553        -1.502145        -0.117040
 C        -2.801026        -2.248635         1.020232
 C        -3.393936        -3.631856         0.490870
 O        -2.863242        -4.742425         0.733075
 H         1.489817         1.497568        -0.832092
 H         2.194559         0.486353         0.554980
 H         1.947755        -0.241414        -1.132219
 H        -2.937972         0.123218         1.152667
 H        -4.133083         0.937791        -0.409355
 H        -2.755903         1.834411        -0.339703
 H        -3.115751         0.575505        -1.863321
 H        -1.894818        -2.485792         1.489359
 H        -3.427877        -1.684870         1.770558
 H        -4.358118        -3.505126        -0.083111
