19
Iteration:  3489charge 0 multiplicity 1
 C         1.360371        -0.850502        -0.577893
 C         0.087692        -0.525174         0.076336
 C        -1.114775        -0.329372         0.321541
 C        -2.461922         0.012728         0.956781
 C        -3.062925         1.402069         0.559636
 O        -3.478960        -0.953414         0.568522
 C        -3.285341        -2.359416         0.781522
 C        -2.508861        -3.060585        -0.432928
 O        -2.195356        -4.237393        -0.451276
 H         1.302238        -0.937609        -1.651686
 H         2.096261        -0.018026        -0.440026
 H         1.860369        -1.819794        -0.338183
 H        -2.284747         0.083635         2.068011
 H        -2.762224         2.183708         1.263819
 H        -2.652336         1.444368        -0.457769
 H        -4.176443         1.370101         0.527153
 H        -3.056071        -2.760127         1.743005
 H        -4.306302        -2.708859         0.538180
 H        -2.247389        -2.464355        -1.433228
