19
Iteration:  2328charge 0 multiplicity 1
 C         1.252341        -0.528865        -0.701038
 C        -0.156497        -0.705723        -0.429290
 C        -1.156236        -0.429547         0.194776
 C        -2.506724        -0.078863         0.814626
 C        -2.977397         1.337266         0.308278
 O        -3.427651        -0.922710         0.107591
 C        -3.531351        -2.240420         0.557697
 C        -2.393441        -3.273451         0.152659
 O        -1.813258        -4.163812         0.672218
 H         1.542353         0.421454        -1.168621
 H         1.905345        -0.614789         0.223057
 H         1.586453        -1.253816        -1.550643
 H        -2.599535        -0.184352         1.928182
 H        -4.081852         1.352011         0.329011
 H        -2.672443         2.052332         1.037743
 H        -2.557547         1.567173        -0.742946
 H        -3.795205        -2.396707         1.656213
 H        -4.399355        -2.649991        -0.018554
 H        -2.272529        -3.080938        -1.009880
