19
Iteration:   810
 C         1.487830        -0.244696         0.080996
 C         0.106238        -0.053760        -0.225503
 C        -1.116440         0.153820        -0.147229
 C        -2.588400         0.056674         0.296944
 C        -3.531657         0.893386        -0.524325
 O        -3.051154        -1.326241         0.129961
 C        -2.386014        -2.206545         0.975072
 C        -2.495041        -3.509018         0.282733
 O        -3.075227        -4.520723         0.687914
 H         1.595240        -0.973314         0.925372
 H         2.214277        -0.573578        -0.714617
 H         1.767403         0.712305         0.473751
 H        -2.716072         0.256743         1.393876
 H        -4.560264         0.551097        -0.222361
 H        -3.364229         1.966551        -0.398240
 H        -3.394485         0.782665        -1.650192
 H        -1.250019        -1.878051         0.901762
 H        -2.710395        -2.131837         2.066703
 H        -2.140831        -3.458310        -0.801849
