19
Iteration:  2975charge 0 multiplicity 1
 C         1.148773        -0.999187        -0.777239
 C        -0.095800        -0.514788        -0.269174
 C        -1.117674        -0.237624         0.326228
 C        -2.467151         0.072750         0.930208
 C        -3.095648         1.435260         0.515468
 O        -3.475818        -0.969623         0.438119
 C        -3.253713        -2.331241         0.726630
 C        -2.294461        -3.070384        -0.191555
 O        -1.991467        -4.224920        -0.003944
 H         0.725153        -1.939601        -1.250481
 H         1.659777        -0.210022        -1.452231
 H         1.702907        -1.373586         0.093729
 H        -2.357085        -0.096839         2.034676
 H        -3.981108         1.639624         1.106543
 H        -2.372488         2.266079         0.671967
 H        -3.362174         1.293103        -0.512587
 H        -3.090345        -2.624826         1.813686
 H        -4.234603        -2.806546         0.423254
 H        -1.939955        -2.490011        -1.082485
