19
Iteration:  3501
 C         1.301478        -0.873325        -0.635903
 C         0.062152        -0.510599         0.053524
 C        -1.042077        -0.178959         0.484608
 C        -2.444559         0.011670         0.948282
 C        -3.014366         1.379581         0.548832
 O        -3.480615        -1.000739         0.504208
 C        -3.330093        -2.376163         0.735267
 C        -2.471453        -3.090331        -0.400895
 O        -2.205282        -4.273070        -0.468394
 H         1.044900        -1.225758        -1.643079
 H         2.064713        -0.014659        -0.598742
 H         1.706563        -1.619075         0.069520
 H        -2.485645        -0.191895         2.051601
 H        -2.480761         2.173374         1.116896
 H        -2.861055         1.805022        -0.495984
 H        -4.096418         1.426207         0.719252
 H        -2.934435        -2.524446         1.732248
 H        -4.331593        -2.815153         0.681733
 H        -2.227258        -2.182505        -1.102127
