19
Iteration:  1462charge 0 multiplicity 1
 C         1.722190         0.638117        -0.229512
 C         0.277737         0.434278        -0.094005
 C        -0.855865         0.117162         0.236221
 C        -2.272885        -0.141931         0.451227
 C        -3.189689         0.803891        -0.181742
 O        -2.747510        -1.454155        -0.020777
 C        -2.721645        -2.586014         0.741203
 C        -3.335582        -3.758061         0.019860
 O        -3.479942        -4.755303         0.725141
 H         1.996179         1.638729        -0.663573
 H         2.295096         0.556538         0.711149
 H         2.133967        -0.088482        -0.929336
 H        -2.348690        -0.155316         1.563266
 H        -4.186210         0.990013         0.313668
 H        -2.770345         1.836841        -0.170174
 H        -3.228733         0.360766        -1.207852
 H        -1.720099        -2.881911         1.130034
 H        -3.348510        -2.447761         1.637865
 H        -3.538220        -3.777069        -1.046632
