19
Iteration:  4857
 C         1.846139        -0.049203         0.386381
 C         0.398346        -0.136508         0.678657
 C        -0.774738        -0.168261         1.058845
 C        -2.212790        -0.436520         1.197989
 C        -2.848393         0.982904         1.031605
 O        -2.740246        -1.163371         0.075479
 C        -2.645735        -2.644675        -0.010556
 C        -3.657847        -3.050653        -1.000362
 O        -3.890938        -4.171548        -1.407695
 H         1.872153        -1.038637        -0.093909
 H         2.009824         0.751804        -0.378202
 H         2.365244        -0.329362         1.319165
 H        -2.568805        -0.848142         2.138734
 H        -2.576123         1.512364         1.898626
 H        -2.401356         1.428683         0.092865
 H        -3.922507         0.886954         0.858672
 H        -1.627850        -2.926305        -0.275192
 H        -2.986038        -3.036252         0.960150
 H        -4.199879        -2.211134        -1.445476
