19
Iteration:  2382charge 0 multiplicity 1
 C         1.412274        -0.352539        -0.813910
 C         0.130777        -0.164670        -0.065344
 C        -1.095543        -0.505227         0.143204
 C        -2.519315        -0.209668         0.684965
 C        -2.822125         1.205337         0.270416
 O        -3.611953        -1.011955         0.096005
 C        -3.452658        -2.284728         0.778412
 C        -2.512004        -3.259986         0.042622
 O        -2.183401        -4.313874         0.576951
 H         1.263942        -0.387366        -1.845879
 H         2.058384         0.535492        -0.741932
 H         1.950657        -1.257892        -0.348229
 H        -2.619158        -0.387946         1.757842
 H        -3.545783         1.637458         0.949288
 H        -1.937008         1.731149         0.134479
 H        -3.254400         1.101116        -0.774373
 H        -3.035616        -2.286768         1.855439
 H        -4.447900        -2.817433         0.656451
 H        -2.253810        -3.005091        -0.963332
