19
Iteration:  3762
 C         1.422029        -0.700763        -0.470412
 C        -0.004436        -0.664884         0.024392
 C        -1.159013        -0.640065         0.413640
 C        -2.463781        -0.227402         1.052813
 C        -2.648865         1.278309         0.709842
 O        -3.681284        -0.890562         0.482735
 C        -3.598781        -2.355031         0.500500
 C        -2.591861        -2.887142        -0.525722
 O        -1.962052        -3.917164        -0.407455
 H         1.390861        -1.008161        -1.535297
 H         2.021542         0.264909        -0.400309
 H         2.025053        -1.617960         0.002493
 H        -2.390367        -0.618683         2.136393
 H        -1.775402         1.783539         0.259259
 H        -3.345778         1.157693        -0.154217
 H        -3.026751         1.845159         1.535559
 H        -3.580106        -2.670434         1.534652
 H        -4.639993        -2.687220         0.374517
 H        -2.695018        -2.356690        -1.506648
