19
Iteration:  2901charge 0 multiplicity 1
 C         1.167971        -0.969407        -0.657392
 C        -0.095424        -0.474663        -0.157905
 C        -1.221797        -0.103040         0.132033
 C        -2.515180         0.034433         0.710305
 C        -3.111669         1.457175         0.600876
 O        -3.457398        -0.976338         0.296286
 C        -2.959463        -2.203393         0.937527
 C        -2.360636        -3.215370        -0.073812
 O        -2.156106        -4.413238        -0.119293
 H         1.353109        -0.493150        -1.670706
 H         1.892506        -0.802863         0.135319
 H         0.930912        -1.957897        -0.866409
 H        -2.288798        -0.062700         1.785947
 H        -4.145215         1.429927         0.986609
 H        -2.386992         2.203120         1.146465
 H        -3.284608         1.625683        -0.455283
 H        -2.093604        -1.910009         1.531950
 H        -3.746719        -2.814551         1.500305
 H        -2.106547        -2.501405        -0.919173
