19
Iteration:   544
 C         1.653673         0.658415         0.025187
 C         0.250732         0.238836        -0.046579
 C        -0.910891        -0.164151        -0.016513
 C        -2.438116        -0.149167         0.141835
 C        -3.240892         0.726008        -0.804603
 O        -2.889657        -1.424464         0.017780
 C        -2.474307        -2.486025         0.907667
 C        -3.331553        -3.548359         0.450806
 O        -3.213344        -4.673874         0.933555
 H         2.202559         0.211318         0.859961
 H         2.172701         0.443968        -0.917420
 H         1.776072         1.814003         0.309243
 H        -2.507350         0.189407         1.200248
 H        -4.316840         0.831841        -0.398510
 H        -2.829505         1.738712        -0.961594
 H        -3.407188         0.261385        -1.750241
 H        -1.478191        -2.839800         0.810812
 H        -2.784061        -2.199614         1.951245
 H        -4.141552        -3.419580        -0.284125
