19
Iteration:  3609
 C         1.085313        -0.948724        -0.613628
 C         0.004220        -0.497029         0.134547
 C        -1.123926        -0.252828         0.553671
 C        -2.481695         0.060654         1.013328
 C        -3.017207         1.431763         0.773749
 O        -3.224113        -0.921021         0.213381
 C        -3.182082        -2.315824         0.548258
 C        -2.383701        -3.108064        -0.390371
 O        -2.291784        -4.315654        -0.393877
 H         1.866351        -1.323802        -0.026070
 H         0.765191        -1.734656        -1.307174
 H         1.593018        -0.207805        -1.272706
 H        -2.602461        -0.311480         2.027395
 H        -2.744910         2.086902         1.600343
 H        -2.885355         1.804273        -0.276445
 H        -4.057575         1.259643         0.937324
 H        -2.912595        -2.332608         1.649041
 H        -4.289952        -2.559657         0.554531
 H        -2.122689        -2.535341        -1.327425
