19
Iteration:   513charge 0 multiplicity 1
 C         1.700617         0.567813        -0.014507
 C         0.260719         0.181862         0.158498
 C        -0.977951         0.109852         0.101877
 C        -2.461604        -0.084516         0.165668
 C        -3.281680         0.731050        -0.785292
 O        -2.956362        -1.377449        -0.148049
 C        -2.323954        -2.476483         0.610854
 C        -3.214781        -3.728839         0.490912
 O        -3.341723        -4.717283         1.135433
 H         2.416780        -0.294702         0.133427
 H         1.788660         0.969222        -1.053595
 H         1.967417         1.399353         0.799239
 H        -2.709147         0.102704         1.212839
 H        -4.178394         1.298531        -0.335526
 H        -2.801260         1.642866        -1.240752
 H        -3.727880         0.047823        -1.509509
 H        -1.351767        -2.869382         0.262961
 H        -2.200048        -2.063452         1.686085
 H        -3.717553        -3.558617        -0.544417
