19
Iteration:  2894
 C         1.090555        -0.918552        -0.673929
 C        -0.101871        -0.448760        -0.130477
 C        -1.183615        -0.089350         0.183478
 C        -2.449219         0.066779         0.749420
 C        -3.077749         1.389788         0.550934
 O        -3.499043        -0.973872         0.299784
 C        -2.912959        -2.207214         0.909167
 C        -2.381328        -3.215700        -0.117596
 O        -2.180818        -4.444303        -0.088970
 H         1.573343        -0.244424        -1.405626
 H         1.808694        -0.950824         0.159734
 H         1.039099        -2.077175        -0.988485
 H        -2.258042        -0.076595         1.848824
 H        -4.050067         1.297001         1.085823
 H        -2.479570         2.252813         0.842161
 H        -3.351002         1.528100        -0.513475
 H        -1.994410        -1.935967         1.446479
 H        -3.728130        -2.593244         1.510692
 H        -2.335986        -2.640345        -1.102084
