19
Iteration:  1660
 C         1.585026         0.402690        -0.153775
 C         0.176199         0.195044        -0.100719
 C        -0.986760        -0.036665         0.296442
 C        -2.390558        -0.226120         0.500078
 C        -3.255797         0.954675        -0.076094
 O        -2.889639        -1.387095        -0.164982
 C        -2.217857        -2.614529         0.214406
 C        -3.366091        -3.558762         0.227800
 O        -3.304785        -4.497630         0.933939
 H         2.087869         0.194480         0.813979
 H         2.154070        -0.372647        -0.837206
 H         2.006769         1.334891        -0.585820
 H        -2.655784        -0.416794         1.570054
 H        -3.181064         1.831561         0.599253
 H        -3.027475         1.221748        -1.063314
 H        -4.290078         0.469551        -0.071017
 H        -1.361898        -2.688995        -0.529104
 H        -1.786958        -2.679546         1.240968
 H        -4.230838        -3.356033        -0.406276
