19
Iteration:  1567charge 0 multiplicity 1
 C         1.602646         0.714030        -0.131635
 C         0.201905         0.332999        -0.116624
 C        -0.879049        -0.147473         0.239098
 C        -2.339010        -0.300205         0.551877
 C        -3.075952         0.847728        -0.108584
 O        -2.971696        -1.390328        -0.151386
 C        -2.208279        -2.561189         0.236397
 C        -3.290056        -3.724194         0.175142
 O        -3.629831        -4.569756         0.982919
 H         2.145323        -0.006829        -0.801646
 H         1.832209         1.671816        -0.538777
 H         2.085956         0.700277         0.885123
 H        -2.515054        -0.389371         1.641591
 H        -2.974006         0.763823        -1.205517
 H        -4.153233         0.556230         0.231296
 H        -2.942975         1.833465         0.380275
 H        -1.425798        -2.778318        -0.557859
 H        -1.689698        -2.388499         1.230547
 H        -3.763258        -3.768708        -0.782447
