19
Iteration:   308
 C         1.640226         0.236345         0.143956
 C         0.202809         0.130799        -0.006947
 C        -1.011939         0.150358        -0.046564
 C        -2.484631        -0.090540        -0.015194
 C        -3.468639         0.968224        -0.693537
 O        -2.807458        -1.518505        -0.433449
 C        -2.278764        -2.488035         0.426155
 C        -3.339666        -3.612365         0.714513
 O        -3.097759        -4.507796         1.497356
 H         1.965619         0.590147         1.202253
 H         2.127920        -0.752849        -0.007398
 H         1.967640         0.937300        -0.610478
 H        -2.763279        -0.125297         1.016404
 H        -3.581184         1.812508         0.057763
 H        -3.010567         1.290246        -1.647710
 H        -4.428528         0.467722        -0.838634
 H        -1.470617        -3.069141        -0.029379
 H        -1.974884        -2.059603         1.365257
 H        -4.314903        -3.431990         0.138306
