19
Iteration:  1519
 C         1.558658         0.754003        -0.183213
 C         0.273744         0.099794         0.056263
 C        -0.916365         0.004362         0.065628
 C        -2.352481        -0.210577         0.349921
 C        -3.165211         1.061106         0.016146
 O        -2.744448        -1.472618        -0.254899
 C        -2.424694        -2.609040         0.538760
 C        -3.253893        -3.782879         0.156502
 O        -3.606384        -4.698846         0.902735
 H         1.766166         0.992873        -1.202325
 H         1.587606         1.727737         0.380452
 H         2.433758         0.246836         0.180940
 H        -2.306022        -0.416978         1.426898
 H        -3.899798         0.841762        -0.801047
 H        -3.451064         1.661235         0.874460
 H        -2.339070         1.740982        -0.541229
 H        -1.337865        -2.850855         0.471548
 H        -2.627034        -2.471315         1.608959
 H        -3.721762        -3.770976        -0.839274
