19
Iteration:  4066charge 0 multiplicity 1
 C         1.248729        -1.228909        -0.406671
 C        -0.002967        -0.780929         0.300913
 C        -1.173726        -0.548602         0.539535
 C        -2.406445        -0.175773         1.199231
 C        -2.782111         1.165396         0.580113
 O        -3.604237        -0.935456         0.616558
 C        -3.476917        -2.300347         0.555203
 C        -2.622628        -2.601934        -0.705674
 O        -1.855318        -3.559393        -0.807893
 H         0.846714        -2.129416        -1.022940
 H         1.695325        -0.431304        -1.134904
 H         1.857778        -1.484377         0.455121
 H        -2.588698        -0.285251         2.281447
 H        -2.098165         1.878172         1.158285
 H        -2.408551         1.113778        -0.449391
 H        -3.882607         1.408511         0.930675
 H        -3.046963        -2.803510         1.470654
 H        -4.476491        -2.704240         0.240630
 H        -2.789642        -2.170205        -1.712262
