19
Iteration:  4195
 C         1.251711        -1.279768        -0.105629
 C         0.079556        -0.593296         0.342200
 C        -1.050097        -0.189551         0.424037
 C        -2.319114        -0.017165         1.135722
 C        -3.101989         1.331960         0.900971
 O        -3.370173        -0.921099         0.564085
 C        -3.178240        -2.293490         0.457158
 C        -2.436667        -2.848341        -0.808221
 O        -2.502969        -4.026437        -1.098276
 H         2.179694        -0.919947         0.370982
 H         1.107401        -2.414189        -0.093850
 H         1.360740        -1.046859        -1.149116
 H        -2.236159        -0.301160         2.282374
 H        -2.908755         2.139361         1.633410
 H        -2.773456         1.754606        -0.035975
 H        -4.153186         1.234196         0.612754
 H        -2.578363        -2.673756         1.326977
 H        -3.953552        -2.990494         0.751481
 H        -1.866641        -2.132517        -1.418694
