19
Iteration:  1614
 C         1.634376         0.534772        -0.229390
 C         0.329004         0.252274         0.275436
 C        -0.914977         0.156397         0.165877
 C        -2.314712        -0.099955         0.434165
 C        -3.344730         0.920925        -0.139073
 O        -2.829183        -1.461937         0.057465
 C        -2.246345        -2.784567         0.028129
 C        -3.399076        -3.737185         0.107276
 O        -3.522999        -4.549214         1.034721
 H         2.486007        -0.204355        -0.025759
 H         1.729544         0.711962        -1.347611
 H         2.017417         1.499763         0.168647
 H        -2.420149         0.010849         1.533020
 H        -2.645643         1.636918        -0.593661
 H        -3.956835         0.481897        -0.949319
 H        -4.017021         1.314228         0.603650
 H        -1.635965        -2.973471        -0.921746
 H        -1.542130        -2.782639         0.905696
 H        -4.172253        -3.655464        -0.605825
