19
Iteration:  4456
 C         1.731077        -0.474888         0.238674
 C         0.317491        -0.344188         0.303781
 C        -0.861669        -0.539542         0.568841
 C        -2.216441        -0.175036         1.055848
 C        -2.898604         1.273358         1.064308
 O        -3.262854        -0.942657         0.170331
 C        -3.252933        -2.351892         0.377017
 C        -3.078220        -3.084436        -0.910560
 O        -3.022205        -4.289040        -1.098434
 H         2.110792        -0.053876         1.178264
 H         2.018459        -1.594604         0.325689
 H         2.154646        -0.064548        -0.729746
 H        -2.555287        -0.503814         2.131624
 H        -2.008978         1.834534         1.402610
 H        -3.343041         1.741253         0.102011
 H        -3.695586         1.164474         1.913464
 H        -2.354701        -2.721012         0.982051
 H        -4.256958        -2.524650         0.768172
 H        -3.258020        -2.418031        -1.731614
