19
Iteration:  2775
 C         1.405565        -0.407946        -0.667986
 C         0.036480        -0.301162        -0.176490
 C        -1.133804        -0.393263         0.267198
 C        -2.444296         0.044769         0.854449
 C        -2.994221         1.194965        -0.008415
 O        -3.457917        -1.025467         0.773378
 C        -2.824568        -2.316739         1.046764
 C        -2.743862        -3.252519        -0.178183
 O        -2.530670        -4.463513        -0.172032
 H         2.016228        -0.786582         0.088392
 H         1.471559        -0.872626        -1.662071
 H         1.592773         0.676578        -0.900789
 H        -2.431249         0.319218         1.930052
 H        -4.074250         1.107655         0.060969
 H        -2.601952         2.164927         0.139590
 H        -2.667256         0.841704        -0.975277
 H        -1.695685        -2.138916         1.226187
 H        -3.380642        -2.815709         1.858967
 H        -2.888183        -2.707117        -1.105108
