19
Iteration:  1171charge 0 multiplicity 1
 C         1.547286        -0.301211        -0.026394
 C         0.115047         0.113246         0.222975
 C        -1.122304         0.314059         0.381085
 C        -2.622066         0.176948         0.393159
 C        -3.545181         0.945439        -0.692468
 O        -3.022852        -1.231645         0.115689
 C        -2.180410        -2.382345         0.349734
 C        -3.132894        -3.559225         0.389617
 O        -2.739044        -4.706624         0.620610
 H         2.314962         0.494673         0.071005
 H         1.816450        -0.968783         0.893303
 H         1.763931        -0.901539        -0.921340
 H        -2.883992         0.353326         1.441055
 H        -4.612629         0.933088        -0.406295
 H        -3.000530         1.869257        -0.909555
 H        -3.573759         0.318165        -1.596625
 H        -1.252185        -2.526006        -0.327799
 H        -1.723971        -2.234960         1.369083
 H        -4.223790        -3.220010         0.331434
