19
Iteration:  3080
 C         1.147446        -0.933776        -0.854249
 C        -0.138542        -0.628451        -0.175997
 C        -1.202723        -0.425789         0.412713
 C        -2.464787        -0.098554         0.975990
 C        -2.827197         1.253215         0.405397
 O        -3.566903        -0.919511         0.503333
 C        -3.508162        -2.323305         0.744975
 C        -2.503297        -2.986616        -0.226266
 O        -1.680712        -3.885769        -0.023093
 H         1.957366        -1.143907        -0.147147
 H         1.078207        -1.879608        -1.311297
 H         1.495229        -0.079803        -1.530661
 H        -2.368035        -0.281182         2.061755
 H        -3.891077         1.374154         0.098823
 H        -2.573835         2.019124         1.126606
 H        -2.097665         1.461989        -0.467582
 H        -3.411318        -2.642858         1.808027
 H        -4.587523        -2.700580         0.481380
 H        -2.506070        -2.713946        -1.267168
