19
Iteration:  1231charge 0 multiplicity 1
 C         1.615543         0.021489         0.194241
 C         0.129140         0.079747        -0.031948
 C        -1.117260         0.004758         0.056983
 C        -2.529408         0.028960         0.262763
 C        -3.378137         1.191584        -0.474770
 O        -3.193094        -1.305587         0.296646
 C        -2.210939        -2.440566         0.268403
 C        -3.103238        -3.646502         0.247732
 O        -2.855705        -4.740223         0.746672
 H         2.187360         0.117216        -0.720724
 H         1.872552         0.749000         0.882665
 H         1.781199        -0.932704         0.682345
 H        -2.549670         0.402600         1.317695
 H        -4.323069         0.928932        -0.990473
 H        -3.769068         1.953181         0.221116
 H        -2.715626         1.689157        -1.180147
 H        -1.550124        -2.487130        -0.579996
 H        -1.668836        -2.466383         1.212880
 H        -4.211738        -3.325979         0.115659
