19
Iteration:  3468charge 0 multiplicity 1
 C         1.352631        -0.727802        -0.467598
 C         0.004817        -0.649457        -0.034613
 C        -1.158851        -0.458130         0.216585
 C        -2.344141        -0.044403         0.886308
 C        -2.995272         1.301157         0.519225
 O        -3.531273        -0.968056         0.684382
 C        -3.232898        -2.277964         0.715447
 C        -2.588738        -2.991038        -0.507860
 O        -2.175429        -4.144616        -0.349865
 H         1.632356        -0.420533        -1.488235
 H         1.996131        -0.162810         0.299859
 H         1.497206        -1.831380        -0.481285
 H        -2.178624         0.005328         1.988279
 H        -2.884840         2.014586         1.354450
 H        -2.674047         1.702811        -0.481090
 H        -4.091595         1.132275         0.444617
 H        -2.629912        -2.603012         1.541479
 H        -4.169280        -2.812728         0.885172
 H        -2.487708        -2.254658        -1.432791
