19
Iteration:  1553
 C         1.543169         0.725267        -0.130017
 C         0.185764         0.235831        -0.182169
 C        -0.877154        -0.160621         0.291386
 C        -2.283645        -0.257676         0.449028
 C        -3.126998         0.890348        -0.030269
 O        -2.871581        -1.409328        -0.179690
 C        -2.297364        -2.599118         0.312363
 C        -3.265675        -3.725904         0.113367
 O        -3.594839        -4.549893         0.999007
 H         2.177878         0.330057        -0.868779
 H         1.473033         1.826320        -0.170777
 H         1.854446         0.408940         0.854257
 H        -2.451216        -0.351355         1.543653
 H        -3.312765         0.759435        -1.128365
 H        -4.119148         1.102147         0.393780
 H        -2.349276         1.789809         0.012260
 H        -1.340278        -2.811671        -0.202193
 H        -2.132433        -2.568359         1.399630
 H        -3.747317        -3.666828        -0.895032
