19
Iteration:   860
 C         1.446143        -0.361257        -0.070022
 C         0.120724         0.228257         0.004328
 C        -1.109972         0.362291        -0.038348
 C        -2.601122         0.123977         0.215514
 C        -3.500303         1.071055        -0.619577
 O        -2.947334        -1.311303         0.067405
 C        -2.562646        -2.373470         1.077030
 C        -2.480293        -3.680687         0.290602
 O        -2.986652        -4.692460         0.701609
 H         2.048536        -0.340224         0.834132
 H         1.177336        -1.389430        -0.203004
 H         2.121416        -0.004424        -0.937699
 H        -2.800691         0.327767         1.306032
 H        -4.231057         1.493270         0.006011
 H        -2.926499         1.906531        -1.075287
 H        -4.025934         0.524631        -1.426840
 H        -1.693762        -2.081586         1.666879
 H        -3.393512        -2.390513         1.788413
 H        -1.935099        -3.642972        -0.648785
