19
Iteration:  2173
 C         0.808196        -1.414425        -0.637842
 C        -0.289758        -0.685025        -0.133640
 C        -1.296845        -0.142197         0.068023
 C        -2.695812         0.015819         0.526726
 C        -3.066784         1.532444         0.404145
 O        -3.640299        -1.039538         0.078228
 C        -3.395916        -2.394691         0.701775
 C        -2.012540        -2.997647         0.074636
 O        -1.195013        -3.749802         0.546137
 H         0.525734        -2.466595        -0.451850
 H         1.176741        -1.204259        -1.686167
 H         1.777129        -1.383806        -0.028376
 H        -2.529157        -0.146318         1.603061
 H        -4.105551         1.544533         0.781834
 H        -2.331893         2.106742         1.062388
 H        -3.015718         1.999432        -0.561642
 H        -3.439298        -2.306082         1.786152
 H        -4.212026        -2.970779         0.313633
 H        -1.906918        -2.698299        -0.932516
