19
Iteration:   317
 C         1.646755         0.186109         0.184754
 C         0.210452         0.178368        -0.033250
 C        -1.031758         0.289973        -0.073882
 C        -2.544473        -0.165611         0.028807
 C        -3.423795         0.955573        -0.673620
 O        -2.793944        -1.466556        -0.504884
 C        -2.310358        -2.500448         0.395458
 C        -3.273987        -3.636109         0.745535
 O        -3.142038        -4.569730         1.542524
 H         1.956600         0.734292         1.127572
 H         2.081047        -0.836829         0.109381
 H         2.095194         0.669183        -0.698901
 H        -2.760233        -0.046116         1.122212
 H        -3.271161         2.020049        -0.158968
 H        -3.262440         1.101214        -1.778328
 H        -4.513433         0.699222        -0.470182
 H        -1.483737        -3.059987        -0.097048
 H        -1.879818        -2.009784         1.266460
 H        -4.116605        -3.609436         0.028395
