19
Iteration:  3518
 C         1.184911        -0.910473        -0.585087
 C        -0.049493        -0.411146        -0.025895
 C        -1.040027        -0.123262         0.650307
 C        -2.467384        -0.044161         0.960894
 C        -2.932739         1.333235         0.614659
 O        -3.414171        -0.975303         0.312400
 C        -3.257326        -2.364324         0.715503
 C        -2.431214        -3.083883        -0.358252
 O        -2.253426        -4.264593        -0.458459
 H         0.972555        -1.634098        -1.418221
 H         1.564720        -0.072220        -1.107610
 H         1.830829        -1.585958         0.028711
 H        -2.603865        -0.007614         2.038718
 H        -2.212170         2.103018         0.930732
 H        -2.991143         1.286253        -0.435970
 H        -3.980157         1.566491         0.969028
 H        -2.686169        -2.662540         1.663374
 H        -4.262946        -2.858377         0.879301
 H        -1.875446        -2.248624        -0.970762
