19
Iteration:  4468
 C         1.767659        -0.508244         0.227174
 C         0.310644        -0.374978         0.389637
 C        -0.906911        -0.346791         0.530264
 C        -2.274556        -0.192833         1.023412
 C        -2.886173         1.296694         1.085634
 O        -3.189389        -0.979367         0.222940
 C        -3.279522        -2.389764         0.399803
 C        -3.119648        -3.083631        -1.003671
 O        -3.045690        -4.302683        -1.096688
 H         2.373813         0.187472         0.811407
 H         1.993963        -1.585195         0.530955
 H         2.121223        -0.384869        -0.814383
 H        -2.195281        -0.641576         2.101319
 H        -2.230256         2.055741         1.561149
 H        -3.131361         1.577811         0.000049
 H        -3.857504         1.253639         1.703469
 H        -2.440317        -2.734702         1.036190
 H        -4.127579        -2.804852         0.938052
 H        -2.949074        -2.421255        -1.844450
