19
Iteration:  4606charge 0 multiplicity 1
 C         1.456277        -0.696048        -0.000541
 C         0.213315        -0.306916         0.702244
 C        -0.897458        -0.233824         1.176690
 C        -2.387960        -0.194578         1.098774
 C        -2.990207         1.263458         0.869951
 O        -3.016804        -1.061087         0.210312
 C        -2.486330        -2.382246         0.227510
 C        -3.025247        -3.033993        -1.050768
 O        -3.469390        -4.180378        -1.205866
 H         1.231489        -1.745458        -0.409453
 H         1.606515         0.072656        -0.755979
 H         2.318519        -0.793241         0.714040
 H        -2.731882        -0.541313         2.176045
 H        -2.436796         2.046504         1.543307
 H        -2.772346         1.480794        -0.171599
 H        -4.094184         1.094253         1.059834
 H        -1.424566        -2.350440         0.190003
 H        -2.774178        -3.021501         1.112407
 H        -2.606945        -2.567758        -1.929478
