19
Iteration:  1388
 C         1.596919         0.447456        -0.391458
 C         0.295713         0.256756         0.224369
 C        -0.911564         0.157595         0.277787
 C        -2.342015        -0.067741         0.535373
 C        -3.261197         0.732257        -0.408201
 O        -2.700386        -1.353537         0.025625
 C        -2.737590        -2.440939         0.990262
 C        -3.228766        -3.642704         0.086279
 O        -3.294026        -4.781673         0.470635
 H         2.387339         0.715826         0.274030
 H         1.950960        -0.544519        -0.787277
 H         1.630264         1.148346        -1.192002
 H        -2.648233         0.003447         1.581371
 H        -3.195256         1.792727        -0.156032
 H        -2.888114         0.770100        -1.446183
 H        -4.226085         0.126550        -0.430392
 H        -1.690014        -2.635914         1.335694
 H        -3.401585        -2.326896         1.891447
 H        -3.798716        -3.424201        -0.851709
