19
Iteration:    15charge 0 multiplicity 1
 C         1.631002         0.184432        -0.166018
 C         0.165422        -0.108113        -0.177552
 C        -1.016139         0.106464        -0.035829
 C        -2.481513        -0.085966         0.096597
 C        -3.165546         0.634381        -1.013232
 O        -2.904636        -1.409899        -0.163306
 C        -2.571497        -2.097066         1.021580
 C        -3.198469        -3.484144         0.675867
 O        -3.089522        -4.526341         1.373534
 H         1.927440         0.372020         0.906543
 H         2.191127        -0.680778        -0.467048
 H         1.810601         1.022480        -0.762822
 H        -2.819351         0.164523         1.167557
 H        -3.175008        -0.138701        -1.873923
 H        -4.178228         0.926739        -0.827521
 H        -2.507409         1.420678        -1.346413
 H        -1.516410        -2.073641         1.289027
 H        -3.135787        -1.658740         1.898562
 H        -3.905612        -3.399687        -0.218701
