19
Iteration:  1213charge 0 multiplicity 1
 C         1.428785        -0.113038         0.198796
 C         0.056149         0.170043        -0.096140
 C        -1.164115         0.132811         0.052044
 C        -2.586178         0.078550         0.446792
 C        -3.249927         1.064708        -0.539780
 O        -3.026464        -1.320044         0.258462
 C        -2.145902        -2.389587         0.258256
 C        -3.161218        -3.595615         0.374464
 O        -2.850150        -4.729722         0.680187
 H         2.140494         0.362925        -0.543510
 H         1.686185         0.334848         1.264224
 H         1.649662        -1.198605         0.198833
 H        -2.785539         0.331758         1.514228
 H        -4.218586         0.604848        -0.924372
 H        -3.534675         1.956997         0.065982
 H        -2.636242         1.266900        -1.382855
 H        -1.585398        -2.394919        -0.728706
 H        -1.541743        -2.403489         1.198374
 H        -4.136219        -3.462300        -0.077707
