19
Iteration:   416charge 0 multiplicity 1
 C         1.521568         0.256296         0.046301
 C         0.092538        -0.089206         0.244643
 C        -1.110486         0.065182         0.150276
 C        -2.599071        -0.089657         0.144794
 C        -3.492306         0.948026        -0.711811
 O        -2.730372        -1.454000        -0.330048
 C        -2.101615        -2.589780         0.305510
 C        -3.070755        -3.630327         0.394393
 O        -3.198227        -4.214812         1.465639
 H         1.573905         0.735486        -0.962906
 H         1.951848         0.869328         0.851531
 H         2.121820        -0.605059         0.059497
 H        -2.854618        -0.008418         1.263094
 H        -4.368393         0.357530        -1.168700
 H        -3.868106         1.830574        -0.162606
 H        -2.922035         1.399685        -1.541166
 H        -1.169990        -2.985332        -0.204361
 H        -1.815460        -2.550167         1.361816
 H        -3.527939        -4.003713        -0.604044
