19
Iteration:  4966
 C         1.812066        -0.113106         0.606793
 C         0.375807        -0.111865         0.607818
 C        -0.807843        -0.403151         0.780387
 C        -2.253220        -0.445393         1.002086
 C        -2.818293         0.846149         1.410795
 O        -2.949869        -1.050093        -0.147451
 C        -2.533800        -2.349651        -0.192164
 C        -3.344623        -3.146943        -1.225626
 O        -4.060992        -4.100839        -0.976369
 H         2.303392         0.420695         1.411388
 H         2.329314        -1.118555         0.550650
 H         2.203559         0.311950        -0.332032
 H        -2.474276        -1.122984         1.902133
 H        -2.557562         1.032137         2.425704
 H        -2.566460         1.668553         0.630601
 H        -3.917130         0.756858         1.308028
 H        -1.427345        -2.360483        -0.455861
 H        -2.528004        -2.904243         0.831550
 H        -3.248107        -2.780484        -2.304603
