19
Iteration:   693charge 0 multiplicity 1
 C         1.514440         0.230422        -0.302574
 C         0.134284         0.150000         0.050721
 C        -1.064351         0.304594         0.288542
 C        -2.541491         0.054894         0.408037
 C        -2.996836         0.834316        -0.693846
 O        -2.903408        -1.344644         0.001241
 C        -2.705784        -2.381304         0.924735
 C        -3.175013        -3.710569         0.330443
 O        -2.926070        -4.849314         0.785914
 H         1.606110         0.636166        -1.348661
 H         1.960620         1.083157         0.312364
 H         2.089697        -0.661833        -0.160730
 H        -2.982970         0.329493         1.357922
 H        -4.033170         1.227439        -0.652857
 H        -2.361043         1.567734        -1.154265
 H        -3.016131         0.208167        -1.559288
 H        -1.673726        -2.474369         1.302877
 H        -3.355206        -2.135374         1.799782
 H        -3.797314        -3.695313        -0.621322
