19
Iteration:  2423charge 0 multiplicity 1
 C         1.455798        -0.238140        -0.609764
 C        -0.026208        -0.397267        -0.476458
 C        -1.113249        -0.245513         0.140556
 C        -2.453920         0.013311         0.749754
 C        -2.902944         1.412035         0.217643
 O        -3.321160        -1.109999         0.243317
 C        -3.401927        -2.444284         0.819875
 C        -2.584793        -3.422954         0.066587
 O        -2.349095        -4.511629         0.451877
 H         1.987956        -1.047028        -1.077858
 H         1.752537         0.673900        -1.122674
 H         1.844982        -0.283816         0.409890
 H        -2.360637         0.012373         1.855578
 H        -3.773142         1.877169         0.714406
 H        -2.117764         2.036575         0.439469
 H        -3.021994         1.404873        -0.907493
 H        -3.318892        -2.378001         1.882122
 H        -4.454525        -2.666369         0.727447
 H        -2.335336        -3.034826        -1.019157
