19
Iteration:  2688
 C         1.537475        -0.250885        -0.536282
 C         0.168871        -0.204138        -0.098304
 C        -1.012572        -0.087536         0.061074
 C        -2.424486        -0.075596         0.668627
 C        -3.110273         0.948603        -0.120439
 O        -3.399155        -1.223209         0.811218
 C        -2.784658        -2.384745         1.183487
 C        -2.778989        -3.176185        -0.073081
 O        -2.836776        -4.371210        -0.177710
 H         1.477381        -0.899853        -1.351403
 H         1.913057         0.638829        -1.048857
 H         2.240677        -0.814056         0.103294
 H        -2.275837         0.274602         1.691375
 H        -3.983773         1.376448         0.360716
 H        -2.466215         1.782612        -0.465438
 H        -3.555280         0.495224        -0.974310
 H        -1.737839        -2.159003         1.447790
 H        -3.109097        -3.056267         1.991923
 H        -2.739770        -2.575780        -0.982009
