19
Iteration:  4033
 C         1.236849        -1.264969        -0.382703
 C        -0.140887        -0.890702        -0.004217
 C        -1.153430        -0.668262         0.619446
 C        -2.432878        -0.129673         1.050966
 C        -2.766068         1.376869         0.668502
 O        -3.733485        -0.978147         0.675195
 C        -3.518977        -2.369284         0.545934
 C        -2.499444        -2.599349        -0.631727
 O        -1.741712        -3.519391        -0.744851
 H         1.450001        -1.648343        -1.434030
 H         2.034714        -0.468812        -0.160080
 H         1.582443        -2.129844         0.198115
 H        -2.406986         0.024874         2.159800
 H        -2.091673         1.887715         1.415366
 H        -2.558228         1.794012        -0.336869
 H        -3.912880         1.460641         0.675420
 H        -3.062043        -2.961983         1.401396
 H        -4.477668        -2.840659         0.226842
 H        -2.500385        -1.797713        -1.519182
