19
Iteration:  1672charge 0 multiplicity 1
 C         1.576152         0.343716        -0.144943
 C         0.109978         0.157803        -0.098308
 C        -1.041307        -0.042371         0.204233
 C        -2.439019        -0.217429         0.445540
 C        -3.211422         1.034546         0.015698
 O        -2.817940        -1.395561        -0.216486
 C        -2.257285        -2.552761         0.282317
 C        -3.365042        -3.577755         0.208134
 O        -3.230035        -4.549111         0.941494
 H         1.924879         0.514036         0.878947
 H         1.973373        -0.632851        -0.607969
 H         1.799114         1.260365        -0.735289
 H        -2.518922        -0.311162         1.562192
 H        -3.336640         1.782335         0.826230
 H        -2.609803         1.468895        -0.725676
 H        -4.235055         0.832260        -0.435721
 H        -1.380173        -3.057205        -0.281038
 H        -1.968203        -2.394625         1.326280
 H        -4.207763        -3.322799        -0.432827
