19
Iteration:  4867charge 0 multiplicity 1
 C         1.828772        -0.132419         0.361438
 C         0.383273        -0.060084         0.750464
 C        -0.775218        -0.283032         1.086797
 C        -2.186787        -0.384263         1.146946
 C        -2.923169         0.962461         1.019177
 O        -2.759151        -1.227337         0.033915
 C        -2.559621        -2.586850         0.037594
 C        -3.632886        -3.011504        -1.075164
 O        -3.941233        -4.147052        -1.368740
 H         2.228638        -1.022731        -0.077909
 H         2.188809         0.646065        -0.346752
 H         2.507052         0.233323         1.128327
 H        -2.352486        -0.871278         2.077760
 H        -2.607602         1.599306         1.819904
 H        -2.610581         1.513573         0.114228
 H        -3.991063         0.795387         1.139691
 H        -1.604106        -2.997955        -0.184886
 H        -2.805838        -3.013083         1.055691
 H        -4.239820        -2.152225        -1.426803
