19
Iteration:  3690charge 0 multiplicity 1
 C         1.398157        -0.743640        -0.334525
 C        -0.009614        -0.675282        -0.014675
 C        -1.181037        -0.504995         0.153906
 C        -2.390895        -0.105073         0.862265
 C        -2.738323         1.376863         0.811664
 O        -3.685873        -0.898128         0.502133
 C        -3.422742        -2.313117         0.580075
 C        -2.616806        -3.046243        -0.563943
 O        -2.047606        -4.069534        -0.352287
 H         1.696889         0.315407        -0.641968
 H         2.026091        -1.161257         0.502305
 H         1.389384        -1.264409        -1.270981
 H        -2.044976        -0.443286         1.876252
 H        -1.853713         1.977146         1.120953
 H        -2.986952         1.701918        -0.182159
 H        -3.634762         1.350451         1.539751
 H        -3.203452        -2.713454         1.625788
 H        -4.438226        -2.781660         0.558066
 H        -2.529767        -2.560306        -1.559437
