19
Iteration:  3890charge 0 multiplicity 1
 C         0.970120        -1.410011        -0.571322
 C        -0.105262        -0.645745         0.091885
 C        -1.119901        -0.206472         0.577615
 C        -2.461385         0.120784         1.062509
 C        -3.094632         1.496437         1.071807
 O        -3.479321        -0.798172         0.384880
 C        -3.091754        -2.267832         0.392375
 C        -2.272641        -2.968094        -0.685151
 O        -1.965016        -4.161703        -0.581277
 H         1.646478        -1.691685         0.296302
 H         0.519953        -2.399281        -0.843760
 H         1.519300        -0.808187        -1.310251
 H        -2.610884        -0.358261         2.105794
 H        -2.762461         2.067516         1.991660
 H        -2.995526         2.052549         0.058950
 H        -4.140640         1.217388         0.963030
 H        -2.659270        -2.378577         1.489701
 H        -4.186202        -2.604541         0.577335
 H        -1.947527        -2.355669        -1.566240
