19
Iteration:   226
 C         1.627841         0.478172        -0.128955
 C         0.177088         0.285134        -0.082672
 C        -1.001012         0.027087         0.070476
 C        -2.449330         0.010074         0.068819
 C        -2.928851         0.959813        -1.094664
 O        -2.999993        -1.331178        -0.027465
 C        -2.482044        -2.569789         0.693480
 C        -3.486911        -3.734029         0.927449
 O        -3.135348        -4.852857         1.252657
 H         2.071359        -0.439967         0.136271
 H         2.042301         0.771056        -1.098835
 H         2.040498         1.151167         0.696658
 H        -2.930676         0.250694         0.966187
 H        -3.147845         0.300172        -1.954665
 H        -3.925029         1.474804        -0.878779
 H        -2.139027         1.762107        -1.366553
 H        -1.699196        -3.129746         0.144411
 H        -1.922116        -2.241646         1.578079
 H        -4.572250        -3.662374         0.679121
