19
Iteration:   377charge 0 multiplicity 1
 C         1.576370         0.119363         0.189434
 C         0.143135         0.222493         0.050743
 C        -1.087159         0.168163         0.017290
 C        -2.520118        -0.158972         0.146968
 C        -3.451797         0.737808        -0.666064
 O        -2.899677        -1.489142        -0.353645
 C        -2.070911        -2.493645         0.256971
 C        -3.110264        -3.543507         0.508863
 O        -3.217988        -4.279811         1.480199
 H         2.147456         1.037043         0.003581
 H         1.842276        -0.201893         1.212241
 H         1.931115        -0.611905        -0.594524
 H        -2.837424        -0.156933         1.165146
 H        -3.372902         0.572555        -1.698401
 H        -4.446736         0.499999        -0.290261
 H        -3.195460         1.790994        -0.440192
 H        -1.259802        -2.722329        -0.429468
 H        -1.640318        -2.105578         1.211044
 H        -3.898588        -3.631283        -0.270625
