19
Iteration:  4108charge 0 multiplicity 1
 C         1.216476        -1.165869        -0.334637
 C        -0.101791        -0.900987         0.297518
 C        -1.140385        -0.502764         0.786331
 C        -2.539861         0.010039         1.147427
 C        -2.749081         1.470866         0.696672
 O        -3.581952        -0.952781         0.590535
 C        -3.209444        -2.362877         0.515037
 C        -2.646810        -2.806467        -0.802867
 O        -1.976456        -3.803767        -0.971264
 H         1.581278        -2.275584        -0.174229
 H         1.308540        -1.147872        -1.550177
 H         2.072336        -0.570938         0.090946
 H        -2.485814         0.200395         2.215885
 H        -1.740657         2.022972         0.666785
 H        -3.159580         1.525207        -0.345496
 H        -3.681413         1.763993         1.280577
 H        -2.543552        -2.632712         1.321494
 H        -4.181180        -2.813566         0.504424
 H        -3.030344        -2.064277        -1.680186
