19
Iteration:  3228charge 0 multiplicity 1
 C         0.982881        -1.335673        -0.614069
 C        -0.055999        -0.506705        -0.003660
 C        -1.143925        -0.109298         0.339280
 C        -2.514813         0.113513         0.885960
 C        -3.245718         1.481602         0.582927
 O        -3.328320        -0.942535         0.389240
 C        -3.095057        -2.347729         0.725477
 C        -2.355363        -3.060218        -0.287599
 O        -1.853019        -4.135154        -0.254108
 H         0.568231        -1.419411        -1.660576
 H         2.010685        -0.890036        -0.701103
 H         0.956543        -2.335938        -0.231134
 H        -2.377638         0.177536         1.997768
 H        -2.962933         2.362646         1.152054
 H        -3.255846         1.721936        -0.432222
 H        -4.304958         1.272672         0.893786
 H        -3.016220        -2.348756         1.850775
 H        -4.087006        -2.829754         0.582982
 H        -2.313016        -2.486885        -1.241564
