19
Iteration:  1360
 C         1.673669         0.386942        -0.386818
 C         0.279688         0.288790         0.130514
 C        -0.879939         0.157553         0.526898
 C        -2.400252        -0.050716         0.500738
 C        -3.264153         0.894650        -0.416779
 O        -2.799750        -1.348309        -0.066290
 C        -2.741336        -2.499431         0.854580
 C        -3.299796        -3.706660         0.096679
 O        -3.139363        -4.821425         0.580018
 H         2.406385         0.033814         0.409754
 H         1.720021        -0.251697        -1.288796
 H         1.945000         1.459099        -0.671510
 H        -2.803428        -0.024626         1.545936
 H        -2.693576         1.789707        -0.698397
 H        -3.618205         0.322204        -1.282046
 H        -4.221711         1.207665         0.053301
 H        -1.679536        -2.757504         1.019950
 H        -3.313580        -2.380418         1.797900
 H        -3.978799        -3.563761        -0.841951
