19
Iteration:  2639
 C         1.426436        -0.351073        -0.524169
 C         0.008914        -0.423611        -0.262431
 C        -1.092250        -0.027570         0.241827
 C        -2.415485         0.143380         0.780014
 C        -3.208137         1.052375        -0.131627
 O        -3.275592        -1.029685         0.814266
 C        -2.617148        -2.316198         1.030489
 C        -2.534273        -3.392005        -0.126138
 O        -2.993418        -4.517023        -0.142863
 H         1.842477         0.096511        -1.525003
 H         1.754318         0.381926         0.267880
 H         1.930400        -1.317119        -0.395991
 H        -2.347057         0.604169         1.797024
 H        -4.290112         0.799201        -0.024818
 H        -3.111279         2.093668         0.063554
 H        -2.932443         0.929327        -1.240157
 H        -1.445692        -2.244253         1.200175
 H        -2.958743        -2.900905         1.924262
 H        -1.828038        -3.133524        -0.976434
