19
Iteration:  4557charge 0 multiplicity 1
 C         1.485585        -0.620982         0.036097
 C         0.115849        -0.549119         0.542265
 C        -0.954309        -0.145383         0.988055
 C        -2.382795        -0.191771         1.132805
 C        -2.928263         1.182739         0.924407
 O        -3.031753        -1.007683         0.146602
 C        -2.739091        -2.361893         0.284409
 C        -2.833531        -3.079223        -1.031781
 O        -3.377305        -4.148070        -1.088852
 H         1.497035        -0.445088        -1.054649
 H         1.989890         0.241176         0.555378
 H         1.869243        -1.584558         0.335230
 H        -2.602124        -0.514530         2.160144
 H        -2.255183         1.647687         1.643665
 H        -2.571246         1.734803        -0.028866
 H        -3.979090         1.118651         1.165193
 H        -1.582807        -2.479703         0.495300
 H        -3.330384        -2.806398         1.119385
 H        -2.526734        -2.435491        -1.948930
