19
Iteration:   225charge 0 multiplicity 1
 C         1.634509         0.477783        -0.132467
 C         0.172528         0.292099        -0.081526
 C        -0.999727         0.035918         0.065126
 C        -2.451367         0.009517         0.074888
 C        -2.912842         0.951257        -1.096334
 O        -3.006439        -1.332909        -0.026631
 C        -2.489679        -2.565894         0.695269
 C        -3.489160        -3.733303         0.927663
 O        -3.135835        -4.857426         1.249602
 H         2.067021        -0.460402         0.104764
 H         2.034853         0.813014        -1.085297
 H         2.047194         1.133957         0.681019
 H        -2.949804         0.235716         1.005302
 H        -3.079568         0.304894        -1.935007
 H        -3.931667         1.413776        -0.894139
 H        -2.175146         1.771865        -1.358895
 H        -1.696629        -3.114402         0.135675
 H        -1.922976        -2.230004         1.603364
 H        -4.554371        -3.662214         0.696006
