19
Iteration:  2131charge 0 multiplicity 1
 C         1.017706        -1.360651        -0.585774
 C        -0.289485        -0.830001        -0.273130
 C        -1.302196        -0.472372         0.221207
 C        -2.596139         0.055850         0.695073
 C        -3.309413         1.333717         0.197222
 O        -3.607869        -0.923826         0.275597
 C        -3.153694        -2.187007         0.709381
 C        -2.121715        -2.884541        -0.121706
 O        -1.396518        -3.657735         0.501084
 H         0.942745        -2.189460        -1.252065
 H         1.758600        -0.573802        -0.894554
 H         1.540568        -1.917190         0.276759
 H        -2.648456         0.038371         1.795305
 H        -4.393833         1.011147         0.050132
 H        -3.252395         2.180331         0.938619
 H        -2.799160         1.653701        -0.753923
 H        -2.621565        -2.139091         1.688083
 H        -3.974949        -2.904357         0.901716
 H        -2.246665        -2.893600        -1.356306
