19
Iteration:   281charge 0 multiplicity 1
 C         1.593171         0.343927         0.082443
 C         0.177927         0.068884         0.051763
 C        -0.992702        -0.111106        -0.096443
 C        -2.447405        -0.167737         0.116926
 C        -3.329490         0.772640        -0.776176
 O        -2.916506        -1.440703        -0.301977
 C        -2.326622        -2.372838         0.473907
 C        -3.334972        -3.446353         0.723534
 O        -3.074005        -4.458193         1.356062
 H         2.128723         0.289428         0.978553
 H         2.080410        -0.335382        -0.629327
 H         1.649144         1.419715        -0.291324
 H        -2.728913        -0.158417         1.260392
 H        -4.252854         1.034534        -0.201388
 H        -2.694579         1.642360        -1.033569
 H        -3.521605         0.226574        -1.784203
 H        -1.420171        -2.886172         0.049052
 H        -1.990501        -1.928233         1.473293
 H        -4.337883        -3.196698         0.342429
