19
Iteration:  4516charge 0 multiplicity 1
 C         1.710329        -0.650322         0.139372
 C         0.274998        -0.295873         0.451579
 C        -0.924913        -0.294456         0.697637
 C        -2.357313        -0.134327         1.105477
 C        -2.968570         1.272946         1.014994
 O        -3.103058        -0.971317         0.194368
 C        -3.008200        -2.406355         0.369399
 C        -3.027983        -3.103728        -0.937679
 O        -3.213827        -4.279385        -1.171233
 H         2.087335         0.194660        -0.534000
 H         2.384558        -0.846706         0.959344
 H         1.802302        -1.465646        -0.588721
 H        -2.621518        -0.462610         2.185184
 H        -2.707334         1.686195         2.066262
 H        -2.607770         1.815311         0.084884
 H        -4.079672         1.267595         1.079286
 H        -2.096836        -2.707947         0.829945
 H        -3.757064        -2.875491         1.053822
 H        -2.582804        -2.450982        -1.721932
