19
Iteration:   363
 C         1.602314         0.067255         0.186583
 C         0.127248         0.405652        -0.008806
 C        -1.088769         0.114917        -0.025711
 C        -2.548705        -0.157972         0.092717
 C        -3.466446         0.827056        -0.636870
 O        -2.804754        -1.489027        -0.328526
 C        -2.148074        -2.561375         0.331148
 C        -3.235675        -3.622694         0.484840
 O        -3.122304        -4.260668         1.495445
 H         2.189890         1.040355         0.457422
 H         1.633882        -0.588031         1.095461
 H         2.066656        -0.521438        -0.582852
 H        -2.732548        -0.060555         1.192345
 H        -2.948656         1.028892        -1.654857
 H        -4.452754         0.314652        -0.900623
 H        -3.566301         1.764854        -0.073430
 H        -1.454626        -3.130855        -0.306354
 H        -1.705371        -2.342511         1.283792
 H        -3.957697        -3.592241        -0.326153
