19
Iteration:  4221
 C         1.283701        -1.180327        -0.024250
 C         0.016985        -0.610327         0.230584
 C        -1.027685        -0.093086         0.545696
 C        -2.370867        -0.000331         1.073741
 C        -3.030727         1.342137         0.962418
 O        -3.285098        -0.969287         0.400855
 C        -3.118818        -2.376219         0.506665
 C        -2.472430        -2.914233        -0.697622
 O        -2.610416        -4.054650        -1.168496
 H         2.139463        -0.469563        -0.063438
 H         1.469225        -2.110460         0.574962
 H         1.179668        -1.577870        -1.093025
 H        -2.373642        -0.211635         2.129641
 H        -2.581731         1.940333         1.734098
 H        -2.742698         1.948771         0.068009
 H        -4.125286         1.398930         0.957437
 H        -2.744323        -2.711032         1.449885
 H        -3.990605        -2.920789         0.569866
 H        -2.114291        -2.107065        -1.332329
