19
Iteration:  1813charge 0 multiplicity 1
 C         1.499115        -0.029298        -0.383166
 C         0.092173        -0.136003         0.135781
 C        -1.099536         0.147016         0.196758
 C        -2.488847         0.121103         0.571327
 C        -3.139965         1.045427        -0.492639
 O        -3.093623        -1.198480         0.434951
 C        -2.501657        -2.396119         0.953700
 C        -3.086496        -3.595696         0.049557
 O        -2.863363        -4.740037         0.297495
 H         1.445472        -0.128214        -1.458096
 H         1.982155         0.935162        -0.024630
 H         2.231521        -0.810685        -0.069972
 H        -2.624024         0.382212         1.623697
 H        -4.218015         0.877886        -0.521759
 H        -2.855808         2.046875        -0.199841
 H        -2.846798         0.866643        -1.557449
 H        -1.446504        -2.472124         0.848122
 H        -2.805030        -2.513089         2.021580
 H        -3.707412        -3.270424        -0.818408
