19
Iteration:  2006
 C         1.241870        -0.828460        -0.348072
 C        -0.170297        -0.612807        -0.028823
 C        -1.299827        -0.093979         0.146883
 C        -2.603711         0.273745         0.597444
 C        -3.270110         1.170384        -0.422445
 O        -3.441448        -0.999742         0.753753
 C        -2.839037        -2.307677         1.153126
 C        -2.320609        -3.143282        -0.106012
 O        -2.026054        -4.318949        -0.039604
 H         1.890295         0.113392        -0.068742
 H         1.719605        -1.669767         0.165036
 H         1.445702        -1.047395        -1.394978
 H        -2.613871         0.805026         1.570736
 H        -3.999756         1.825604         0.000053
 H        -2.551014         1.643237        -1.021992
 H        -3.817209         0.479879        -1.115524
 H        -2.037850        -2.317734         1.898678
 H        -3.713932        -2.738667         1.574822
 H        -2.543077        -2.694541        -1.007073
