19
Iteration:  3074
 C         1.148925        -0.909952        -0.876943
 C        -0.171284        -0.682606        -0.158442
 C        -1.176657        -0.367958         0.423018
 C        -2.449515        -0.106977         1.026632
 C        -2.792396         1.293744         0.387953
 O        -3.584031        -0.927801         0.467348
 C        -3.503080        -2.364484         0.728032
 C        -2.512653        -3.044110        -0.246966
 O        -1.679079        -3.888240         0.002677
 H         1.800179        -1.139915        -0.008756
 H         1.044609        -1.851837        -1.533747
 H         1.456741        -0.038028        -1.412228
 H        -2.391750        -0.148568         2.134275
 H        -3.847540         1.296736         0.159622
 H        -2.579768         2.158332         1.073513
 H        -2.184702         1.373021        -0.460078
 H        -3.261406        -2.613472         1.776093
 H        -4.505115        -2.591291         0.516796
 H        -2.673840        -2.395231        -1.239207
