19
Iteration:  2893
 C         1.081509        -0.915695        -0.674018
 C        -0.090877        -0.448723        -0.132054
 C        -1.189640        -0.084251         0.193322
 C        -2.443040         0.074212         0.757629
 C        -3.078673         1.375232         0.538082
 O        -3.499616        -0.975058         0.303240
 C        -2.905233        -2.208548         0.902336
 C        -2.385755        -3.214299        -0.132287
 O        -2.185282        -4.444538        -0.082510
 H         1.609925        -0.209526        -1.375166
 H         1.801474        -0.980187         0.140820
 H         1.064963        -2.040560        -1.002316
 H        -2.277257        -0.086918         1.857422
 H        -4.034135         1.296640         1.118726
 H        -2.469904         2.299466         0.816062
 H        -3.343811         1.522552        -0.511506
 H        -2.000839        -1.957113         1.452990
 H        -3.740136        -2.568812         1.546291
 H        -2.359719        -2.704811        -1.102349
