19
Iteration:  3667
 C         1.411305        -0.846467        -0.426260
 C         0.050868        -0.573072        -0.026367
 C        -1.166351        -0.406423         0.193547
 C        -2.498262        -0.119588         0.935764
 C        -2.903283         1.409694         0.836862
 O        -3.451176        -0.915821         0.455508
 C        -3.441888        -2.292954         0.586205
 C        -2.574527        -3.038432        -0.510391
 O        -2.115233        -4.147281        -0.361425
 H         1.998119         0.060128        -0.172876
 H         1.800820        -1.741352         0.138819
 H         1.354280        -0.911425        -1.489616
 H        -2.230898        -0.292721         2.014388
 H        -2.337773         2.061499         1.538021
 H        -2.624220         1.750935        -0.162712
 H        -4.032248         1.377550         0.953125
 H        -3.190077        -2.785564         1.587882
 H        -4.490481        -2.676427         0.466096
 H        -2.561938        -2.625956        -1.546593
