19
Iteration:   651
 C         1.530341         0.491442        -0.341273
 C         0.175930         0.191773         0.190431
 C        -0.975516        -0.145508         0.328674
 C        -2.395939        -0.113372         0.216267
 C        -3.104434         0.848213        -0.744746
 O        -2.768417        -1.513539        -0.174587
 C        -2.828261        -2.229773         1.022127
 C        -3.402285        -3.627061         0.530840
 O        -2.872549        -4.709866         0.722697
 H         1.606233         1.510854        -0.625520
 H         2.247064         0.435067         0.461955
 H         1.825977        -0.188155        -1.116102
 H        -2.770147         0.052252         1.252862
 H        -4.195773         0.791521        -0.443841
 H        -2.794720         1.841246        -0.386024
 H        -2.916672         0.641741        -1.764758
 H        -1.766305        -2.407778         1.533991
 H        -3.453938        -1.802740         1.822302
 H        -4.366100        -3.527246        -0.003277
