19
Iteration:   508charge 0 multiplicity 1
 C         1.723109         0.543703        -0.009338
 C         0.236519         0.182780         0.183995
 C        -1.002663         0.171771         0.075183
 C        -2.488537        -0.081258         0.198228
 C        -3.294548         0.784113        -0.786966
 O        -2.946784        -1.425327        -0.156059
 C        -2.314178        -2.523346         0.592010
 C        -3.233341        -3.711918         0.456698
 O        -3.329462        -4.703863         1.181799
 H         2.389982        -0.299619        -0.036497
 H         1.817623         1.084118        -0.954902
 H         1.987002         1.278216         0.711371
 H        -2.839634         0.142793         1.241237
 H        -4.087673         1.307318        -0.308635
 H        -2.566061         1.482530        -1.204453
 H        -3.657014         0.195633        -1.649068
 H        -1.332145        -2.905357         0.236686
 H        -2.104001        -2.174460         1.575256
 H        -3.574164        -3.665694        -0.592172
