19
Iteration:  4187
 C         1.290058        -1.291746        -0.130425
 C         0.107716        -0.618918         0.296078
 C        -1.046695        -0.231989         0.509914
 C        -2.377539         0.006968         1.123229
 C        -3.092644         1.353452         0.869014
 O        -3.458008        -0.920510         0.570829
 C        -3.117606        -2.317300         0.442254
 C        -2.455455        -2.834063        -0.771903
 O        -2.470178        -4.008224        -1.084354
 H         2.218617        -1.165453         0.497002
 H         1.021011        -2.412723        -0.212251
 H         1.397225        -0.898768        -1.171950
 H        -2.141208        -0.027952         2.136675
 H        -2.939025         1.966790         1.716423
 H        -2.691840         1.732809        -0.072514
 H        -4.210428         1.154242         0.891412
 H        -2.334942        -2.540984         1.147891
 H        -4.051123        -2.824656         0.562236
 H        -1.963679        -2.108832        -1.446378
