19
Iteration:  3624charge 0 multiplicity 1
 C         1.271194        -0.985753        -0.611026
 C        -0.018137        -0.419966        -0.021605
 C        -1.063093        -0.219233         0.627772
 C        -2.462642        -0.091726         0.993201
 C        -3.073257         1.345873         0.782793
 O        -3.315436        -0.920760         0.206409
 C        -3.273753        -2.256592         0.654500
 C        -2.492464        -3.054329        -0.463777
 O        -2.245174        -4.266654        -0.369073
 H         2.059338        -1.132960         0.215451
 H         1.155769        -2.080180        -1.004233
 H         1.511980        -0.399026        -1.476589
 H        -2.620331        -0.264503         2.114490
 H        -2.728878         2.070180         1.568188
 H        -2.576945         1.821763        -0.083084
 H        -4.199667         1.468423         0.707580
 H        -2.796108        -2.520436         1.601907
 H        -4.249693        -2.679376         0.494869
 H        -2.080925        -2.304614        -1.175308
