19
Iteration:  4086
 C         1.202290        -1.220924        -0.336696
 C         0.013505        -0.768960         0.333966
 C        -1.146337        -0.581982         0.690428
 C        -2.451568        -0.190383         1.080620
 C        -2.793798         1.349170         0.639321
 O        -3.590813        -0.885008         0.670719
 C        -3.352003        -2.332217         0.485315
 C        -2.700752        -2.734686        -0.795418
 O        -1.894760        -3.655438        -0.850299
 H         1.079080        -2.298869        -0.764915
 H         1.134156        -0.581470        -1.356838
 H         2.191568        -1.018582         0.167179
 H        -2.368792        -0.122479         2.173860
 H        -1.901644         2.042610         0.841028
 H        -2.865126         1.239281        -0.462663
 H        -3.829579         1.591129         1.091546
 H        -2.682573        -2.742132         1.241359
 H        -4.341738        -2.742095         0.417046
 H        -2.743530        -2.145568        -1.732568
