19
Iteration:  3603charge 0 multiplicity 1
 C         1.016530        -0.946469        -0.635427
 C        -0.011847        -0.522235         0.217733
 C        -1.113713        -0.207860         0.547321
 C        -2.440418         0.044068         1.005564
 C        -3.011335         1.458534         0.770610
 O        -3.244448        -0.921819         0.209836
 C        -3.195073        -2.277692         0.573162
 C        -2.304880        -3.138607        -0.458335
 O        -2.307938        -4.379160        -0.380141
 H         1.805900        -1.582139        -0.043747
 H         0.870723        -1.607536        -1.552156
 H         1.418571        -0.055668        -1.136516
 H        -2.607340        -0.305525         2.079066
 H        -2.685571         2.292019         1.445915
 H        -2.936211         1.831897        -0.251133
 H        -4.114899         1.389903         1.064055
 H        -2.779495        -2.270796         1.571296
 H        -4.230240        -2.553985         0.498430
 H        -2.010097        -2.446123        -1.290965
