19
Iteration:  1891
 C         1.360612        -0.301803        -0.309772
 C        -0.029033        -0.354006         0.058439
 C        -1.159302        -0.012928         0.123061
 C        -2.615744         0.212257         0.539160
 C        -3.113022         1.106273        -0.596843
 O        -3.245888        -1.118104         0.795759
 C        -2.536014        -2.351572         1.051475
 C        -2.821793        -3.425197         0.014375
 O        -2.553445        -4.606449         0.036140
 H         1.869398        -1.208697        -0.135708
 H         1.358247         0.038483        -1.410599
 H         1.831628         0.484847         0.379079
 H        -2.589153         0.593388         1.569575
 H        -4.110018         1.514897        -0.448416
 H        -2.335389         1.946859        -0.773961
 H        -3.142306         0.532830        -1.530782
 H        -1.466181        -2.334418         1.222105
 H        -2.991751        -2.723985         2.018141
 H        -3.518240        -2.949152        -0.820489
