19
Iteration:  4500charge 0 multiplicity 1
 C         1.637415        -0.561050         0.134612
 C         0.289524        -0.389749         0.501369
 C        -0.865553        -0.100749         0.666425
 C        -2.247320        -0.196851         1.012974
 C        -2.864285         1.205100         1.041481
 O        -3.212104        -1.018105         0.211021
 C        -3.114837        -2.414291         0.423011
 C        -3.005270        -3.098818        -1.006776
 O        -3.183090        -4.283849        -1.137293
 H         2.335426         0.242832        -0.008080
 H         2.089434        -1.097679         1.044884
 H         1.742294        -1.302584        -0.689232
 H        -2.060142        -0.643914         2.015384
 H        -2.637636         1.865333         1.840982
 H        -2.748298         1.797902         0.108233
 H        -4.012200         1.235348         1.065268
 H        -2.148376        -2.516929         1.048627
 H        -4.033379        -2.871266         0.847285
 H        -3.027799        -2.404913        -1.855846
