19
Iteration:  2938charge 0 multiplicity 1
 C         1.161470        -1.015946        -0.664643
 C        -0.130669        -0.566102        -0.343536
 C        -1.145278        -0.094356         0.130667
 C        -2.425127         0.047869         0.792343
 C        -3.201571         1.411876         0.612479
 O        -3.446761        -0.959355         0.450893
 C        -3.122870        -2.316388         0.807203
 C        -2.199560        -3.066852        -0.097347
 O        -2.146272        -4.260409        -0.059811
 H         1.291931        -1.303050        -1.684137
 H         2.054826        -0.443655        -0.510577
 H         1.375731        -1.969657        -0.032499
 H        -2.220135        -0.163296         1.858464
 H        -4.262280         1.195526         0.852557
 H        -2.910509         2.303585         1.120099
 H        -3.149535         1.690018        -0.480056
 H        -2.888735        -2.474011         1.877137
 H        -4.097189        -2.789140         0.688417
 H        -1.783385        -2.528585        -0.880454
