19
Iteration:  4701
 C         1.750538        -0.498840         0.427767
 C         0.311131        -0.322949         0.614692
 C        -0.895140        -0.276666         0.589276
 C        -2.243053        -0.265423         1.060077
 C        -2.868905         1.160437         1.016401
 O        -3.139605        -1.066600         0.300639
 C        -2.714355        -2.422258         0.142006
 C        -3.523488        -3.013827        -1.017313
 O        -3.302226        -4.186838        -1.263582
 H         2.224637        -0.025282         1.292860
 H         1.990778        -1.483799        -0.052325
 H         1.976536         0.166887        -0.425453
 H        -2.065606        -0.633777         2.125196
 H        -2.386063         1.946246         1.656627
 H        -2.898311         1.500714         0.020700
 H        -3.883392         1.025459         1.383368
 H        -1.650864        -2.715986        -0.133905
 H        -2.882713        -2.960881         1.076242
 H        -4.031123        -2.295131        -1.656398
