19
Iteration:  3593charge 0 multiplicity 1
 C         1.028319        -0.955347        -0.693203
 C        -0.030125        -0.604953         0.273131
 C        -1.111401        -0.100257         0.597270
 C        -2.463157         0.023940         0.993401
 C        -3.035696         1.487565         0.783669
 O        -3.297572        -0.871234         0.193423
 C        -3.151849        -2.239623         0.573630
 C        -2.298845        -3.204351        -0.481563
 O        -2.305890        -4.398088        -0.381586
 H         1.852972        -1.634043        -0.236766
 H         0.481929        -1.360787        -1.578711
 H         1.560279        -0.006984        -0.837991
 H        -2.505402        -0.148546         2.090888
 H        -2.327409         2.187274         1.254209
 H        -2.978348         1.668400        -0.275187
 H        -4.127136         1.563476         1.081036
 H        -2.725977        -2.527278         1.523180
 H        -4.072865        -2.796363         0.572228
 H        -1.591927        -2.722647        -1.231470
