19
Iteration:  4049
 C         1.248544        -1.254916        -0.381622
 C        -0.049078        -0.813408         0.097721
 C        -1.118774        -0.612328         0.611267
 C        -2.496015        -0.177858         1.069810
 C        -2.755492         1.241869         0.633485
 O        -3.629803        -0.941522         0.663664
 C        -3.514675        -2.360147         0.510592
 C        -2.590919        -2.603355        -0.640764
 O        -1.784432        -3.516916        -0.771843
 H         1.118654        -1.860464        -1.244604
 H         1.839379        -0.418756        -0.620513
 H         1.818211        -1.893813         0.341614
 H        -2.463958        -0.362643         2.179417
 H        -2.403428         2.055696         1.203544
 H        -2.435956         1.320486        -0.405878
 H        -3.784261         1.480058         0.715828
 H        -3.261935        -2.831842         1.457766
 H        -4.545390        -2.723434         0.389406
 H        -2.772924        -1.651712        -1.186881
