19
Iteration:   480
 C         1.499868         0.375366         0.003315
 C         0.064380         0.384773         0.103121
 C        -1.102464         0.095779         0.198374
 C        -2.449276        -0.093055         0.151448
 C        -3.171117         0.955338        -0.756590
 O        -2.843154        -1.436811        -0.205026
 C        -2.196551        -2.674859         0.419261
 C        -3.172952        -3.831751         0.372322
 O        -3.300407        -4.520030         1.365636
 H         1.794333        -0.533987        -0.554917
 H         1.918481         1.258661        -0.523836
 H         1.994708         0.445801         1.064649
 H        -2.887655         0.132963         1.123334
 H        -4.028473         1.331086        -0.087821
 H        -2.404103         1.671411        -1.080594
 H        -3.513431         0.505792        -1.671559
 H        -1.115434        -2.955830         0.314522
 H        -2.287600        -2.358587         1.528085
 H        -3.702369        -3.949457        -0.629537
