19
Iteration:  4462
 C         1.766938        -0.493234         0.229578
 C         0.312187        -0.366392         0.360542
 C        -0.892073        -0.433285         0.533929
 C        -2.214613        -0.186933         1.058261
 C        -2.936054         1.319999         1.078817
 O        -3.212599        -0.968465         0.200229
 C        -3.284918        -2.366936         0.390237
 C        -3.092376        -3.098032        -0.971923
 O        -3.038701        -4.293994        -1.096794
 H         2.275604         0.137061         0.995298
 H         1.870413        -1.534723         0.422275
 H         2.121297        -0.308985        -0.778764
 H        -2.428802        -0.567335         2.017114
 H        -2.068613         1.905290         1.414981
 H        -3.114240         1.669357         0.090908
 H        -3.688123         1.107292         1.768640
 H        -2.458706        -2.740909         1.042213
 H        -4.154802        -2.820062         0.979482
 H        -3.106112        -2.354656        -1.890181
