19
Iteration:  3894charge 0 multiplicity 1
 C         0.959335        -1.433094        -0.543755
 C        -0.086543        -0.672433         0.080831
 C        -1.094314        -0.168188         0.582709
 C        -2.462830         0.122669         1.103138
 C        -3.097611         1.494757         1.042301
 O        -3.470808        -0.821197         0.374305
 C        -3.114984        -2.311643         0.382559
 C        -2.251332        -2.939377        -0.696082
 O        -1.982795        -4.129950        -0.563546
 H         1.607389        -1.549890         0.322655
 H         0.505936        -2.376060        -0.818811
 H         1.415980        -0.844109        -1.509222
 H        -2.524183        -0.232227         2.144072
 H        -2.746061         2.052081         1.897522
 H        -3.107247         2.037333         0.141136
 H        -4.180750         1.100333         1.114821
 H        -2.580636        -2.363531         1.335157
 H        -4.130108        -2.611768         0.472641
 H        -2.053848        -2.295173        -1.593794
