19
Iteration:  4698
 C         1.748725        -0.517624         0.416030
 C         0.287595        -0.332224         0.614697
 C        -0.910240        -0.275140         0.606709
 C        -2.235876        -0.237747         1.044826
 C        -2.885657         1.141801         1.022015
 O        -3.129303        -1.057523         0.312981
 C        -2.703008        -2.428569         0.133493
 C        -3.479391        -3.014512        -0.995198
 O        -3.319878        -4.187743        -1.272981
 H         2.387660        -0.131314         1.256454
 H         2.137800        -1.500415        -0.098143
 H         1.908658         0.279618        -0.372056
 H        -2.130707        -0.626423         2.150443
 H        -2.437728         1.925864         1.612422
 H        -2.879864         1.580110        -0.048410
 H        -3.918454         0.995328         1.308153
 H        -1.674689        -2.613235        -0.142271
 H        -2.925048        -2.963209         1.111756
 H        -4.021673        -2.259769        -1.653330
