19
Iteration:  2721
 C         1.535542        -0.220076        -0.591733
 C         0.099387        -0.278628        -0.124512
 C        -1.028544        -0.397460         0.229368
 C        -2.399194         0.096281         0.734284
 C        -3.234236         1.134030        -0.162134
 O        -3.233045        -1.088004         0.860040
 C        -2.849911        -2.375142         1.175470
 C        -2.796867        -3.266364        -0.161045
 O        -2.730943        -4.502893        -0.217714
 H         1.726420        -1.225209        -0.833390
 H         1.679420         0.330776        -1.545145
 H         2.336467         0.185833         0.060807
 H        -2.358220         0.601610         1.705737
 H        -4.000924         1.636451         0.469491
 H        -2.552349         1.846059        -0.607500
 H        -3.633963         0.557031        -0.992691
 H        -1.837490        -2.474524         1.683845
 H        -3.731357        -2.885064         1.684061
 H        -2.973663        -2.650023        -1.166291
