19
Iteration:  3308charge 0 multiplicity 1
 C         1.081200        -1.103708        -0.597964
 C        -0.126404        -0.541001         0.068873
 C        -1.268072        -0.305117         0.466472
 C        -2.528816         0.058696         0.924867
 C        -2.929880         1.444600         0.389276
 O        -3.630772        -1.023728         0.526848
 C        -3.108061        -2.333342         0.747041
 C        -2.355621        -3.002831        -0.342112
 O        -1.921289        -4.119214        -0.386160
 H         1.345327        -2.219455        -0.437120
 H         1.124536        -0.976125        -1.669978
 H         1.975337        -0.449132        -0.294640
 H        -2.384496         0.170431         2.024429
 H        -2.032362         1.800745        -0.146837
 H        -3.788654         1.430804        -0.357577
 H        -3.209926         2.134496         1.156566
 H        -2.400414        -2.068316         1.585439
 H        -3.833011        -3.018418         1.172351
 H        -1.985819        -2.328415        -1.245369
