19
Iteration:  2532charge 0 multiplicity 1
 C         1.364597        -0.463543        -0.611640
 C        -0.060659        -0.270772        -0.298224
 C        -1.117009         0.115566         0.354916
 C        -2.457878         0.267312         0.829412
 C        -3.280172         1.301000         0.008777
 O        -2.949101        -1.111748         0.387428
 C        -2.783105        -2.396996         0.951154
 C        -2.431461        -3.520139         0.003871
 O        -2.945292        -4.667350         0.079764
 H         1.821324        -0.186389         0.343210
 H         1.503082        -1.537621        -0.776050
 H         1.742160         0.055068        -1.538812
 H        -2.526926         0.458554         1.919976
 H        -4.267717         1.418687         0.464758
 H        -2.721196         2.179836        -0.061165
 H        -3.471466         0.752259        -0.974671
 H        -1.993309        -2.398684         1.720231
 H        -3.743291        -2.657455         1.335236
 H        -1.698349        -3.222900        -0.844988
