19
Iteration:  2371
 C         1.413319        -0.340356        -0.837632
 C         0.107881        -0.373270        -0.027481
 C        -1.068076        -0.461695         0.190122
 C        -2.500622        -0.223483         0.598365
 C        -2.894543         1.225409         0.271844
 O        -3.563038        -1.067594         0.152152
 C        -3.486351        -2.331956         0.713333
 C        -2.482307        -3.196932         0.021161
 O        -2.165681        -4.190281         0.612937
 H         1.146130        -0.213558        -1.851563
 H         2.100664         0.442396        -0.491796
 H         1.987027        -1.314057        -0.868002
 H        -2.409235        -0.378946         1.686979
 H        -3.679238         1.624136         0.918630
 H        -2.092994         1.883525         0.360592
 H        -3.295721         1.245642        -0.783999
 H        -3.286515        -2.297739         1.841442
 H        -4.542358        -2.716037         0.686247
 H        -2.185276        -2.932672        -0.962677
