19
Iteration:   838
 C         1.343447        -0.359656         0.020345
 C         0.129127         0.362480        -0.061312
 C        -1.071314         0.150814        -0.214322
 C        -2.512022         0.068251         0.233316
 C        -3.469229         0.922922        -0.549865
 O        -3.012023        -1.287115         0.129488
 C        -2.509160        -2.310246         1.019805
 C        -2.463066        -3.629405         0.289514
 O        -3.041731        -4.584151         0.687331
 H         1.467957        -0.700738         1.043169
 H         1.293334        -1.210176        -0.614899
 H         2.248786         0.295204        -0.182580
 H        -2.673338         0.352111         1.285394
 H        -4.303434         1.098925         0.096569
 H        -3.093574         1.945488        -0.693603
 H        -3.859614         0.501062        -1.473514
 H        -1.514386        -2.044744         1.232476
 H        -3.009933        -2.355927         1.964320
 H        -1.925634        -3.615111        -0.652008
