19
Iteration:  1783
 C         1.567904         0.049495        -0.231104
 C         0.087410        -0.029103        -0.169504
 C        -1.094797        -0.043383         0.225334
 C        -2.529356         0.010851         0.435564
 C        -3.200746         1.239398        -0.376262
 O        -3.054873        -1.269219         0.220658
 C        -2.402765        -2.391834         0.948600
 C        -3.066557        -3.588856         0.237936
 O        -3.005687        -4.827393         0.371224
 H         1.995377         0.707943        -1.000329
 H         2.106020         0.514446         0.666888
 H         2.156501        -0.899720        -0.425624
 H        -2.699500         0.272273         1.518729
 H        -4.236660         1.072471        -0.537131
 H        -3.265844         2.081749         0.380421
 H        -2.659438         1.517079        -1.228308
 H        -1.277847        -2.462135         0.785801
 H        -2.610881        -2.255902         2.017474
 H        -3.736522        -3.198518        -0.571120
