19
Iteration:  2609charge 0 multiplicity 1
 C         1.377721        -0.447771        -0.578318
 C         0.042466        -0.239014        -0.099518
 C        -1.120373        -0.057817         0.273959
 C        -2.488088         0.061291         0.665188
 C        -3.258808         1.187681        -0.145557
 O        -3.211013        -1.206075         0.638402
 C        -2.487285        -2.422863         1.087667
 C        -2.482372        -3.297730        -0.122810
 O        -3.018757        -4.396866        -0.025862
 H         1.684916         0.309761        -1.231542
 H         1.953248        -0.595029         0.316426
 H         1.426501        -1.457410        -1.050422
 H        -2.441911         0.426085         1.690814
 H        -4.306657         1.046673         0.028709
 H        -2.973836         2.162396         0.295160
 H        -2.993676         1.158761        -1.188913
 H        -1.515028        -2.118613         1.500762
 H        -3.005953        -2.969795         1.858423
 H        -2.017832        -2.934696        -1.060224
