19
Iteration:  1549charge 0 multiplicity 1
 C         1.542544         0.730720        -0.130859
 C         0.169117         0.203712        -0.177443
 C        -0.876706        -0.151838         0.279636
 C        -2.305693        -0.256386         0.430305
 C        -3.121170         0.944435        -0.034121
 O        -2.841041        -1.426800        -0.182530
 C        -2.316857        -2.621697         0.347300
 C        -3.266311        -3.731529         0.109672
 O        -3.576863        -4.530655         0.987313
 H         2.236735         0.418267        -0.961754
 H         1.451477         1.843572        -0.079581
 H         1.883241         0.409724         0.862774
 H        -2.396525        -0.413125         1.537857
 H        -3.365978         0.674627        -1.060343
 H        -4.017632         1.231433         0.487120
 H        -2.475078         1.760082         0.008507
 H        -1.364889        -2.852769        -0.142151
 H        -2.247388        -2.689971         1.437303
 H        -3.787559        -3.702059        -0.930127
