19
Iteration:   536
 C         1.658127         0.638217         0.017818
 C         0.242369         0.243432        -0.000658
 C        -0.898279        -0.184777         0.060728
 C        -2.358462        -0.088932         0.149972
 C        -3.323619         0.707106        -0.817891
 O        -2.907508        -1.430677        -0.024381
 C        -2.396886        -2.433912         0.807553
 C        -3.353633        -3.613189         0.449807
 O        -3.242939        -4.682466         0.982119
 H         2.259698         0.004149         0.751209
 H         2.120149         0.601701        -0.999788
 H         1.652246         1.723977         0.369649
 H        -2.599033         0.293536         1.150086
 H        -4.252525         0.990279        -0.264230
 H        -2.866835         1.717561        -1.037874
 H        -3.568868         0.120135        -1.733499
 H        -1.320224        -2.619477         0.833390
 H        -2.671955        -2.191047         1.910722
 H        -4.039433        -3.283431        -0.375233
