19
Iteration:  4247charge 0 multiplicity 1
 C         1.439378        -1.091149        -0.073552
 C         0.052793        -0.596454         0.191279
 C        -1.049913        -0.302436         0.722758
 C        -2.517884        -0.055713         1.088035
 C        -3.006153         1.354949         1.008464
 O        -3.353732        -0.881202         0.259934
 C        -3.054579        -2.276995         0.479879
 C        -2.524076        -2.971990        -0.729447
 O        -2.671342        -4.094082        -1.145301
 H         2.135693        -0.416385        -0.585051
 H         1.836485        -1.415392         0.873702
 H         1.408777        -2.006849        -0.709726
 H        -2.746952        -0.258811         2.161192
 H        -2.228808         2.104411         1.441598
 H        -3.094396         1.828201         0.010728
 H        -3.997909         1.477289         1.487484
 H        -2.244539        -2.405986         1.261644
 H        -3.854403        -2.956895         1.040803
 H        -1.749510        -2.262418        -1.193200
