19
Iteration:  3499charge 0 multiplicity 1
 C         1.317449        -0.864381        -0.637567
 C         0.075555        -0.514810         0.064845
 C        -1.047098        -0.205622         0.451080
 C        -2.446925         0.019660         0.949581
 C        -3.025157         1.383637         0.556126
 O        -3.484113        -1.004266         0.516909
 C        -3.322522        -2.355757         0.752399
 C        -2.472581        -3.087380        -0.429844
 O        -2.202946        -4.272831        -0.462163
 H         1.120818        -1.182812        -1.618038
 H         1.999811        -0.023086        -0.566920
 H         1.673107        -1.690830         0.030880
 H        -2.480397        -0.140784         2.059548
 H        -2.529325         2.177556         1.111090
 H        -2.828668         1.744318        -0.453031
 H        -4.138681         1.452582         0.643906
 H        -2.989864        -2.598575         1.763981
 H        -4.349939        -2.804658         0.639675
 H        -2.269595        -2.210930        -1.057428
