19
Iteration:  4868charge 0 multiplicity 1
 C         1.823851        -0.138461         0.361731
 C         0.391838        -0.055109         0.754250
 C        -0.770952        -0.291888         1.086012
 C        -2.191217        -0.380305         1.139783
 C        -2.926788         0.957760         1.024353
 O        -2.758446        -1.227826         0.032015
 C        -2.557389        -2.582447         0.043433
 C        -3.632754        -3.007363        -1.078034
 O        -3.944127        -4.147582        -1.365955
 H         2.247261        -1.035617        -0.071945
 H         2.181952         0.652781        -0.355641
 H         2.503340         0.277414         1.119944
 H        -2.362757        -0.884615         2.077355
 H        -2.627274         1.601715         1.809399
 H        -2.642382         1.523530         0.082100
 H        -3.987666         0.805165         1.146784
 H        -1.580087        -2.999384        -0.189951
 H        -2.795165        -3.032683         1.034965
 H        -4.215979        -2.136460        -1.418767
