19
Iteration:  2597
 C         1.284348        -0.518126        -0.585540
 C         0.059284        -0.081954         0.005584
 C        -1.101554        -0.179540         0.284498
 C        -2.468815         0.058539         0.596325
 C        -3.243218         1.114813        -0.096862
 O        -3.160664        -1.220983         0.537048
 C        -2.484663        -2.316714         1.109500
 C        -2.508538        -3.305183        -0.046676
 O        -3.001083        -4.383727        -0.054129
 H         1.873050         0.268937        -1.059274
 H         2.065981        -0.782861         0.097327
 H         1.085998        -1.285690        -1.360878
 H        -2.584212         0.342553         1.638368
 H        -4.249448         0.957977         0.264441
 H        -2.908052         2.062061         0.274712
 H        -3.369653         1.193483        -1.201129
 H        -1.380864        -2.144042         1.355489
 H        -3.106627        -2.635144         1.943056
 H        -2.143044        -2.778754        -0.954392
