19
Iteration:  3602
 C         1.015324        -0.949064        -0.642225
 C        -0.018531        -0.526890         0.231135
 C        -1.112221        -0.197726         0.549278
 C        -2.433799         0.037661         1.003051
 C        -3.015729         1.461582         0.774876
 O        -3.249825        -0.918641         0.206968
 C        -3.194678        -2.267905         0.577612
 C        -2.297294        -3.146381        -0.468268
 O        -2.309270        -4.386199        -0.378468
 H         1.781432        -1.593082        -0.066910
 H         0.855852        -1.593048        -1.580412
 H         1.400817        -0.033066        -1.093196
 H        -2.601138        -0.285514         2.094223
 H        -2.652483         2.315659         1.416676
 H        -2.936798         1.840251        -0.275398
 H        -4.104814         1.414281         1.064774
 H        -2.754081        -2.296681         1.575118
 H        -4.224254        -2.585115         0.490741
 H        -1.972095        -2.448680        -1.279962
