19
Iteration:   764charge 0 multiplicity 1
 C         1.481787         0.035975        -0.047106
 C         0.025899        -0.277886         0.109599
 C        -1.164220         0.021716        -0.122841
 C        -2.515568         0.111377         0.306204
 C        -3.374058         0.914440        -0.646149
 O        -3.118007        -1.207384         0.194537
 C        -2.310672        -2.319532         0.902237
 C        -2.669165        -3.565186         0.231513
 O        -3.061228        -4.566805         0.757661
 H         2.013419        -0.822294        -0.430364
 H         1.583841         0.724989        -0.856648
 H         1.979246         0.383824         0.878778
 H        -2.563222         0.402518         1.377792
 H        -4.319655         0.429370        -0.801859
 H        -3.544342         1.980234        -0.417615
 H        -2.874052         1.078887        -1.693287
 H        -1.150065        -2.137075         0.688942
 H        -2.464489        -2.297311         1.999682
 H        -2.351137        -3.630767        -0.841040
