19
Iteration:   509charge 0 multiplicity 1
 C         1.722013         0.546058        -0.011561
 C         0.241815         0.181738         0.180512
 C        -1.000246         0.161719         0.079332
 C        -2.484071        -0.081602         0.192535
 C        -3.292118         0.771715        -0.786816
 O        -2.950134        -1.414670        -0.154954
 C        -2.313179        -2.517181         0.592418
 C        -3.231076        -3.715805         0.464711
 O        -3.331568        -4.706678         1.173173
 H         2.391481        -0.292314        -0.009644
 H         1.811302         1.066335        -0.974423
 H         1.985822         1.321552         0.742147
 H        -2.819886         0.135124         1.235033
 H        -4.108482         1.314904        -0.314164
 H        -2.608166         1.513023        -1.208183
 H        -3.668575         0.174243        -1.618796
 H        -1.359147        -2.901297         0.260309
 H        -2.118965        -2.145687         1.595157
 H        -3.584769        -3.636028        -0.584993
