19
Iteration:   302
 C         1.637441         0.262077         0.113045
 C         0.188121         0.107140         0.026198
 C        -1.038258         0.058854        -0.043024
 C        -2.451072        -0.053436        -0.034897
 C        -3.456706         0.929913        -0.688771
 O        -2.818575        -1.511743        -0.405888
 C        -2.277188        -2.509952         0.448887
 C        -3.361473        -3.564864         0.700632
 O        -3.081897        -4.468817         1.460801
 H         1.890756         0.528187         1.101169
 H         2.150001        -0.673679        -0.091853
 H         2.071520         1.104688        -0.489827
 H        -2.768187        -0.128442         1.058710
 H        -3.688304         1.666658         0.035744
 H        -2.995351         1.426608        -1.547474
 H        -4.337854         0.389856        -1.085824
 H        -1.320411        -2.925341         0.018881
 H        -1.946507        -2.176702         1.489623
 H        -4.392944        -3.503649         0.303713
