19
Iteration:   749charge 0 multiplicity 1
 C         1.518114         0.023224        -0.122191
 C         0.119662         0.009103         0.107919
 C        -1.106226         0.063182        -0.011294
 C        -2.538881        -0.004419         0.300592
 C        -3.257440         0.902028        -0.704838
 O        -3.179258        -1.309446         0.245819
 C        -2.422308        -2.222700         0.863454
 C        -2.726263        -3.593454         0.220114
 O        -3.061620        -4.656597         0.780404
 H         1.874354        -0.800668        -0.745670
 H         1.707945         0.981253        -0.630950
 H         2.079412         0.002036         0.838973
 H        -2.639581         0.438850         1.291259
 H        -4.319501         0.574377        -0.860617
 H        -3.360039         1.910549        -0.283354
 H        -2.772691         0.805539        -1.610087
 H        -1.392027        -2.102483         0.657929
 H        -2.513655        -2.210867         1.936143
 H        -2.718601        -3.492051        -0.914565
