19
Iteration:  3698charge 0 multiplicity 1
 C         1.387343        -0.717156        -0.317728
 C         0.002705        -0.706023        -0.073241
 C        -1.172410        -0.490297         0.187674
 C        -2.468976        -0.202517         0.818453
 C        -2.669150         1.321331         0.820025
 O        -3.673027        -0.893220         0.507408
 C        -3.494410        -2.277056         0.629182
 C        -2.596907        -2.982913        -0.573716
 O        -2.027209        -4.061238        -0.347059
 H         1.572797         0.279123        -0.600063
 H         2.090304        -0.899406         0.509508
 H         1.505142        -1.457157        -1.111889
 H        -2.347697        -0.332900         1.888439
 H        -1.811766         1.982722         0.995438
 H        -3.155698         1.526661        -0.148389
 H        -3.406060         1.613743         1.582285
 H        -2.838311        -2.635423         1.468961
 H        -4.473429        -2.817383         0.475345
 H        -2.640143        -2.534914        -1.608709
