19
Iteration:  4905
 C         1.857787        -0.127179         0.400220
 C         0.466457        -0.233480         0.836462
 C        -0.761191        -0.225085         0.933792
 C        -2.235424        -0.426988         1.120116
 C        -3.006936         0.833780         1.134213
 O        -2.748850        -1.124616        -0.049497
 C        -2.533437        -2.503832        -0.041463
 C        -3.505984        -2.989323        -1.174208
 O        -4.026077        -4.097479        -1.158369
 H         2.652800        -0.788286         0.812192
 H         1.692919        -0.114994        -0.662057
 H         2.018693         0.908214         0.761800
 H        -2.509331        -1.100227         1.976324
 H        -2.518435         1.751077         1.598113
 H        -3.162145         1.011851         0.068485
 H        -4.028557         0.674379         1.542499
 H        -1.422987        -2.677047        -0.301654
 H        -2.849815        -3.017105         0.837194
 H        -3.727451        -2.232696        -1.941361
