19
Iteration:  2542
 C         1.303862        -0.473263        -0.613002
 C        -0.048975        -0.274662        -0.207313
 C        -0.990848         0.157027         0.398736
 C        -2.431509         0.199755         0.747711
 C        -3.343030         1.240048        -0.032427
 O        -2.976310        -1.102602         0.421595
 C        -2.724199        -2.401694         0.995294
 C        -2.427874        -3.517988        -0.053914
 O        -2.972884        -4.575548         0.068866
 H         2.039995         0.038006         0.048470
 H         1.477914        -1.565241        -0.587620
 H         1.563907        -0.124731        -1.626980
 H        -2.579370         0.383466         1.818626
 H        -4.207974         1.477280         0.605372
 H        -2.898126         2.157151        -0.258139
 H        -3.658751         0.813643        -1.047205
 H        -2.064715        -2.660170         1.849161
 H        -3.675838        -2.727708         1.418211
 H        -1.711581        -3.302894        -0.963628
