19
Iteration:  1975
 C         1.386511        -0.749216        -0.240481
 C         0.032403        -0.208453        -0.166784
 C        -1.207525        -0.107232         0.053519
 C        -2.541787         0.158779         0.439997
 C        -3.372254         1.052427        -0.425602
 O        -3.364632        -0.995228         0.868851
 C        -2.913249        -2.357623         1.202194
 C        -2.557705        -3.210115        -0.067164
 O        -2.150768        -4.377710        -0.053106
 H         1.997867        -0.512315         0.673322
 H         1.336766        -1.859202        -0.204885
 H         1.943194        -0.567869        -1.168200
 H        -2.474676         0.701619         1.426689
 H        -4.303441         1.231326         0.115612
 H        -2.868503         2.048190        -0.531630
 H        -3.603839         0.602850        -1.433904
 H        -1.969149        -2.410432         1.822648
 H        -3.786437        -2.699058         1.772124
 H        -2.782599        -2.712597        -1.142870
