19
Iteration:  4613charge 0 multiplicity 1
 C         1.503598        -0.691100         0.027435
 C         0.208961        -0.299863         0.675075
 C        -0.925903        -0.157864         1.153166
 C        -2.371365        -0.214131         1.214461
 C        -2.977969         1.224083         0.836186
 O        -3.036711        -1.077003         0.189867
 C        -2.520447        -2.427999         0.192608
 C        -3.031604        -3.031074        -1.073409
 O        -3.459179        -4.143226        -1.178854
 H         1.210510        -1.739501        -0.140977
 H         1.617588        -0.117459        -0.898547
 H         2.436441        -0.722560         0.573353
 H        -2.720673        -0.514868         2.160381
 H        -2.536322         1.813290         1.641905
 H        -2.676436         1.297994        -0.226188
 H        -4.042688         1.244309         1.009030
 H        -1.352785        -2.561662         0.126138
 H        -2.728287        -2.843560         1.181418
 H        -2.772121        -2.354088        -2.021434
