19
Iteration:   912charge 0 multiplicity 1
 C         1.462493        -0.140070        -0.328478
 C         0.004070        -0.191544         0.140058
 C        -1.153674        -0.023663         0.469864
 C        -2.634930         0.006387         0.354711
 C        -3.278210         1.013729        -0.661525
 O        -2.973220        -1.306970        -0.080508
 C        -2.763518        -2.235077         0.884683
 C        -2.530346        -3.499291         0.210810
 O        -2.791162        -4.472944         0.814393
 H         1.657094         0.942471        -0.472181
 H         2.260218        -0.557383         0.295164
 H         1.492629        -0.558535        -1.380708
 H        -3.084903         0.088323         1.370146
 H        -4.014182         1.728076        -0.328270
 H        -2.485501         1.685304        -1.007639
 H        -3.701719         0.434433        -1.430884
 H        -2.028911        -1.903297         1.660104
 H        -3.682952        -2.289512         1.550153
 H        -2.300831        -3.480601        -0.897879
