19
Iteration:  4845charge 0 multiplicity 1
 C         1.760518        -0.110092         0.380956
 C         0.391115        -0.160303         0.658803
 C        -0.747906        -0.151306         1.027868
 C        -2.249860        -0.404100         1.197025
 C        -2.770708         0.979504         1.047906
 O        -2.741302        -1.161451         0.089965
 C        -2.719312        -2.579928         0.052534
 C        -3.741039        -3.071127        -1.031573
 O        -3.803987        -4.223865        -1.429208
 H         2.178492        -0.664208        -0.477488
 H         2.235647         0.921580         0.220563
 H         2.428844        -0.164481         1.238001
 H        -2.434148        -0.931918         2.102234
 H        -2.687656         1.642659         1.880225
 H        -2.174699         1.472540         0.268349
 H        -3.833488         1.043389         0.791000
 H        -1.787468        -2.959250        -0.301676
 H        -2.829112        -3.226500         0.957648
 H        -4.324364        -2.210169        -1.384140
