19
Iteration:  3717
 C         1.450366        -0.666821        -0.349480
 C        -0.058375        -0.740304        -0.126130
 C        -1.208874        -0.620750         0.240193
 C        -2.491425        -0.226727         1.001200
 C        -2.666109         1.272369         0.772080
 O        -3.648492        -0.917379         0.370616
 C        -3.445317        -2.290409         0.611298
 C        -2.680923        -2.905225        -0.475401
 O        -2.013767        -3.938950        -0.368234
 H         1.698683         0.246655        -0.940737
 H         1.810197        -0.361640         0.648645
 H         1.746833        -1.740006        -0.749558
 H        -2.235521        -0.503717         2.079159
 H        -1.671247         1.687058         0.536613
 H        -3.295583         1.423167        -0.171678
 H        -2.999407         1.720533         1.655870
 H        -3.089888        -2.682982         1.572422
 H        -4.415212        -2.870869         0.545072
 H        -2.597775        -2.282287        -1.399353
