19
Iteration:  3801charge 0 multiplicity 1
 C         1.281727        -0.880980        -0.556900
 C        -0.008260        -0.699452         0.120089
 C        -1.164599        -0.566176         0.484172
 C        -2.403823        -0.136151         1.022884
 C        -2.849696         1.349587         0.795469
 O        -3.532757        -0.862713         0.502794
 C        -3.526132        -2.293966         0.465232
 C        -2.516529        -2.913753        -0.585123
 O        -1.987563        -3.998005        -0.429315
 H         1.278136        -1.904518        -1.018701
 H         1.515794        -0.062798        -1.248102
 H         2.171927        -0.851139         0.039348
 H        -2.329779        -0.242041         2.125214
 H        -2.120935         2.054450         1.207415
 H        -2.889677         1.584617        -0.310865
 H        -3.869781         1.511152         1.165813
 H        -3.113597        -2.805752         1.368679
 H        -4.478975        -2.632204         0.031658
 H        -2.432503        -2.386790        -1.571301
