19
Iteration:  3010
 C         1.020522        -0.882310        -0.843367
 C        -0.027962        -0.593697         0.017958
 C        -1.191156        -0.345258         0.384441
 C        -2.518675        -0.007857         0.935143
 C        -2.882950         1.414019         0.520243
 O        -3.590300        -0.958581         0.262949
 C        -3.289224        -2.272816         0.766746
 C        -2.429739        -3.126511        -0.269623
 O        -1.815743        -4.141219         0.027789
 H         0.988687        -2.057830        -0.974123
 H         0.887591        -0.622554        -1.937898
 H         2.029671        -0.672941        -0.603559
 H        -2.631710        -0.150546         2.043974
 H        -3.631533         2.005538         1.071294
 H        -1.906251         1.990528         0.427386
 H        -3.217440         1.350369        -0.502624
 H        -2.678188        -2.161626         1.694413
 H        -4.176338        -2.911980         1.105243
 H        -2.176418        -2.599077        -1.191853
