19
Iteration:  1115charge 0 multiplicity 1
 C         1.492402        -0.168699         0.005767
 C         0.001564        -0.076223         0.084254
 C        -1.213858         0.038917         0.183089
 C        -2.657042         0.051523         0.297258
 C        -3.240076         1.130738        -0.609207
 O        -3.092790        -1.314648        -0.046631
 C        -2.440656        -2.256676         0.750259
 C        -3.104778        -3.571869         0.518194
 O        -2.498289        -4.650052         0.524553
 H         2.027786         0.054551         0.974966
 H         1.911707        -1.113827        -0.512065
 H         1.797548         0.669099        -0.632745
 H        -2.903139         0.174549         1.369749
 H        -3.843327         1.767502         0.088882
 H        -2.476513         1.885629        -0.859835
 H        -3.735307         0.738295        -1.446711
 H        -1.323652        -2.313282         0.553181
 H        -2.682926        -1.875524         1.749020
 H        -4.214710        -3.553203         0.236053
