19
Iteration:  2117charge 0 multiplicity 1
 C         1.047498        -1.378853        -0.572768
 C        -0.235343        -0.705629        -0.241207
 C        -1.253952        -0.357089         0.271477
 C        -2.585238         0.092918         0.683444
 C        -3.258214         1.300951         0.046742
 O        -3.641888        -0.939350         0.448757
 C        -3.188410        -2.235312         0.721944
 C        -2.186467        -3.029499        -0.145084
 O        -1.422581        -3.715646         0.427055
 H         0.998922        -1.794393        -1.593341
 H         1.791855        -0.549504        -0.727525
 H         1.236274        -1.966352         0.326164
 H        -2.451610         0.293024         1.754586
 H        -4.292583         1.030750        -0.005972
 H        -3.286149         2.183402         0.778657
 H        -3.042487         1.613976        -0.915492
 H        -2.697656        -2.280699         1.694374
 H        -4.111616        -2.750059         0.774941
 H        -2.016121        -2.735628        -1.340012
