19
Iteration:  3858charge 0 multiplicity 1
 C         1.030481        -1.203355        -0.558180
 C        -0.200898        -0.695705         0.064239
 C        -1.210887        -0.213426         0.516113
 C        -2.510803        -0.022829         1.032544
 C        -2.907399         1.447124         1.045188
 O        -3.406962        -0.894867         0.244488
 C        -3.153155        -2.290586         0.535323
 C        -2.353941        -2.911167        -0.547560
 O        -2.017282        -4.073674        -0.556924
 H         1.459183        -2.028288         0.087333
 H         0.943435        -1.777908        -1.512978
 H         1.934145        -0.525242        -0.582319
 H        -2.675914        -0.454691         2.056622
 H        -2.876257         2.044467         1.999523
 H        -2.206956         1.928459         0.289668
 H        -3.948271         1.535201         0.747612
 H        -2.771464        -2.603241         1.588871
 H        -4.132905        -2.895467         0.579972
 H        -2.097941        -2.237114        -1.412792
