19
Iteration:  4641
 C         1.509350        -0.628871         0.183260
 C         0.179376        -0.363539         0.587928
 C        -0.941378        -0.165983         0.975406
 C        -2.296888        -0.208306         1.201161
 C        -2.981118         1.170876         0.843330
 O        -2.947627        -1.074120         0.323097
 C        -2.483896        -2.435014         0.179289
 C        -3.193582        -2.975368        -1.129349
 O        -3.450608        -4.163139        -1.202825
 H         1.822777        -1.657519         0.491387
 H         1.630019        -0.752467        -0.977574
 H         2.308582         0.095559         0.525535
 H        -2.509765        -0.542564         2.313418
 H        -2.803528         1.909421         1.636914
 H        -2.638442         1.564158        -0.197634
 H        -4.107219         1.040063         0.787195
 H        -1.428304        -2.645739         0.189394
 H        -3.002644        -2.848095         1.090513
 H        -3.273322        -2.292252        -1.989915
