19
Iteration:  2816
 C         1.311514        -0.640303        -0.739809
 C         0.060791        -0.317063        -0.061596
 C        -1.128311        -0.084479         0.325382
 C        -2.499650         0.079279         0.861623
 C        -3.076956         1.271828         0.112012
 O        -3.324473        -1.140150         0.525631
 C        -2.930047        -2.348437         1.138259
 C        -2.746038        -3.256428        -0.162309
 O        -2.382364        -4.423336        -0.193174
 H         2.252645        -0.291048        -0.203409
 H         1.563677        -1.640183        -1.035880
 H         1.363352        -0.154475        -1.792037
 H        -2.380357         0.233918         1.954710
 H        -4.130694         1.457988         0.333552
 H        -2.604273         2.308442         0.325641
 H        -2.941035         1.081574        -0.923365
 H        -1.959882        -2.233857         1.616996
 H        -3.678857        -2.729552         1.815266
 H        -2.921688        -2.685085        -1.168876
