19
Iteration:  4009
 C         1.144761        -1.280646        -0.344822
 C        -0.200670        -0.965348         0.064146
 C        -1.319276        -0.562712         0.386331
 C        -2.523702        -0.095200         1.121504
 C        -2.776000         1.310057         0.772347
 O        -3.628605        -0.905447         0.670814
 C        -3.342203        -2.221977         0.516441
 C        -2.454849        -2.647648        -0.682369
 O        -1.703368        -3.621606        -0.705896
 H         1.340287        -1.099221        -1.468847
 H         2.020493        -0.825986         0.281864
 H         1.260219        -2.411785        -0.284602
 H        -2.471882        -0.173068         2.219936
 H        -1.895408         1.865019         1.243708
 H        -2.648607         1.389777        -0.351212
 H        -3.845273         1.578270         0.869367
 H        -2.876714        -2.780918         1.365131
 H        -4.324122        -2.663625         0.270240
 H        -2.426424        -2.065942        -1.678888
