19
Iteration:  3755
 C         1.382708        -0.684819        -0.445591
 C         0.018262        -0.649950        -0.029307
 C        -1.150041        -0.713626         0.401068
 C        -2.455530        -0.227592         1.026736
 C        -2.655179         1.231403         0.700823
 O        -3.660595        -0.880435         0.473595
 C        -3.596690        -2.299054         0.552522
 C        -2.651540        -2.919662        -0.510860
 O        -1.932951        -3.919113        -0.419842
 H         1.438607        -0.908040        -1.497185
 H         2.063306         0.107163        -0.082834
 H         1.946252        -1.495951        -0.097311
 H        -2.645707        -0.370209         2.100482
 H        -1.773482         1.729897         0.293118
 H        -3.445086         1.393330        -0.011203
 H        -3.073796         1.769310         1.613400
 H        -3.380366        -2.668622         1.623372
 H        -4.636039        -2.595286         0.145656
 H        -2.545681        -2.208972        -1.384254
