19
Iteration:   460charge 0 multiplicity 1
 C         1.527312         0.294998         0.014661
 C         0.033240         0.430800         0.045438
 C        -1.089326         0.025205         0.295684
 C        -2.550144        -0.213130         0.259420
 C        -3.168557         0.934004        -0.689577
 O        -2.838826        -1.485214        -0.405678
 C        -2.247936        -2.427236         0.401806
 C        -3.055659        -3.797788         0.428753
 O        -3.314535        -4.456096         1.415445
 H         1.650329        -0.320154        -0.899691
 H         2.141249         1.195678        -0.010672
 H         1.795239        -0.169271         0.915287
 H        -3.091950        -0.394741         1.232316
 H        -4.222178         1.248469        -0.400627
 H        -2.428382         1.715974        -0.939520
 H        -3.215840         0.425823        -1.666033
 H        -1.327143        -2.859011        -0.182664
 H        -1.707870        -2.079969         1.306502
 H        -3.395848        -3.881672        -0.635137
