19
Iteration:  3616
 C         1.188984        -0.970685        -0.631110
 C        -0.033141        -0.457589         0.075466
 C        -1.109974        -0.259602         0.579939
 C        -2.477458         0.002400         1.002123
 C        -3.049378         1.398618         0.784216
 O        -3.240620        -0.908524         0.197595
 C        -3.199512        -2.284547         0.591746
 C        -2.463411        -3.089191        -0.384634
 O        -2.268967        -4.277707        -0.393169
 H         2.025318        -1.229828         0.102348
 H         0.745278        -1.860885        -1.072905
 H         1.639503        -0.248518        -1.353356
 H        -2.594512        -0.165052         2.098193
 H        -2.657477         2.014449         1.593982
 H        -2.747224         1.799978        -0.154682
 H        -4.167216         1.265918         0.773229
 H        -2.923441        -2.604664         1.602531
 H        -4.200259        -2.748940         0.496880
 H        -2.077137        -2.513717        -1.266531
