19
Iteration:  4054
 C         1.232233        -1.260868        -0.371334
 C        -0.025839        -0.790992         0.141652
 C        -1.145289        -0.580000         0.598538
 C        -2.486020        -0.239298         1.114717
 C        -2.764544         1.225170         0.631045
 O        -3.615660        -0.918272         0.641545
 C        -3.509823        -2.353243         0.530500
 C        -2.593193        -2.612991        -0.641092
 O        -1.811013        -3.510626        -0.781639
 H         1.126952        -1.979746        -1.262864
 H         1.863437        -0.358118        -0.761420
 H         1.942711        -1.804576         0.276030
 H        -2.328391        -0.268970         2.205543
 H        -2.206958         2.073507         1.176595
 H        -2.506991         1.288176        -0.449142
 H        -3.885390         1.420889         0.519516
 H        -3.195603        -2.881718         1.459749
 H        -4.526792        -2.711599         0.288076
 H        -2.785707        -1.750886        -1.349549
