19
Iteration:  2508charge 0 multiplicity 1
 C         1.351154        -0.431509        -0.573638
 C        -0.022863        -0.153923        -0.288543
 C        -1.054863         0.077167         0.211773
 C        -2.439161         0.030793         0.697321
 C        -3.130232         1.306508         0.144670
 O        -3.172830        -1.121746         0.249087
 C        -2.884526        -2.314642         1.025922
 C        -2.492493        -3.482458         0.068621
 O        -2.824990        -4.677836         0.135779
 H         1.845784        -0.763687         0.415221
 H         1.355904        -1.276437        -1.287862
 H         1.804443         0.386870        -1.106856
 H        -2.435061         0.022735         1.796430
 H        -4.209006         1.248828         0.465601
 H        -2.604851         2.159635         0.513721
 H        -3.143622         1.200728        -0.980984
 H        -1.916267        -2.217782         1.603829
 H        -3.786837        -2.471707         1.632655
 H        -1.729102        -3.096778        -0.727571
