19
Iteration:   112charge 0 multiplicity 1
 C         1.692483         0.369721        -0.166408
 C         0.257835         0.353255        -0.211741
 C        -0.899750        -0.051679         0.027487
 C        -2.400948        -0.080645         0.054883
 C        -3.141945         0.619527        -1.164563
 O        -2.820332        -1.536876         0.008125
 C        -2.655598        -2.325571         1.173001
 C        -3.578877        -3.497174         0.970633
 O        -3.063585        -4.582820         0.914433
 H         2.173736         1.104345        -0.881066
 H         1.940324         0.735491         0.818146
 H         1.991802        -0.610816        -0.367866
 H        -2.654641         0.351843         0.974253
 H        -3.801325         1.430480        -0.789253
 H        -2.505523         1.022333        -1.900442
 H        -3.725106        -0.180583        -1.512893
 H        -1.635042        -2.694445         1.380892
 H        -3.082447        -1.901387         2.089754
 H        -4.687136        -3.219724         1.161109
