19
Iteration:  1769
 C         1.623943         0.080922        -0.200099
 C         0.157320         0.071973        -0.199946
 C        -0.990226        -0.066511         0.182815
 C        -2.496145        -0.005642         0.482793
 C        -3.238387         1.120631        -0.231685
 O        -3.078075        -1.315246         0.105286
 C        -2.466301        -2.331030         0.820284
 C        -3.180434        -3.595867         0.189361
 O        -2.975078        -4.740657         0.513135
 H         1.948578         0.889600        -0.840688
 H         1.843473         0.068373         0.903627
 H         1.906622        -0.897162        -0.631606
 H        -2.658170         0.071345         1.583065
 H        -4.205455         0.788130        -0.597595
 H        -3.190377         1.971114         0.374655
 H        -2.728861         1.410010        -1.199447
 H        -1.414738        -2.296433         0.608117
 H        -2.617303        -2.325457         1.930152
 H        -3.810151        -3.308570        -0.622489
