19
Iteration:  1294charge 0 multiplicity 1
 C         1.641519         0.297179        -0.054115
 C         0.163924         0.085642         0.016623
 C        -1.035923        -0.096276         0.258455
 C        -2.526821        -0.082683         0.324825
 C        -3.176418         1.132996        -0.299508
 O        -3.109368        -1.309340        -0.174064
 C        -2.576602        -2.448421         0.650559
 C        -3.243385        -3.687731         0.250487
 O        -2.866266        -4.727092         0.698493
 H         2.272378        -0.582456        -0.313098
 H         2.000069         1.052896        -0.789546
 H         2.087139         0.641765         0.936958
 H        -2.749184         0.000322         1.404355
 H        -3.187581         1.052828        -1.379472
 H        -4.137215         1.278460         0.180081
 H        -2.499088         1.943348         0.127926
 H        -1.516976        -2.610262         0.315894
 H        -2.388675        -2.215478         1.723998
 H        -4.089762        -3.620510        -0.444260
