19
Iteration:   119charge 0 multiplicity 1
 C         1.677027         0.431564        -0.185209
 C         0.220742         0.213200        -0.166265
 C        -0.946442        -0.023332         0.003670
 C        -2.380505        -0.084430         0.031919
 C        -3.113687         0.641183        -1.167800
 O        -2.815475        -1.542948         0.058304
 C        -2.611370        -2.278937         1.198767
 C        -3.544901        -3.480953         0.924514
 O        -3.101519        -4.616210         0.904260
 H         1.976612         1.062618        -1.024171
 H         1.984713         0.912137         0.783256
 H         2.215395        -0.589289        -0.156602
 H        -2.784971         0.293768         1.061273
 H        -3.685372         1.511584        -0.809541
 H        -2.446499         0.888935        -2.000529
 H        -3.901338        -0.072713        -1.536304
 H        -1.597113        -2.737855         1.306916
 H        -2.909648        -1.688815         2.141652
 H        -4.641729        -3.284182         1.092352
