19
Iteration:  3862
 C         1.027043        -1.231568        -0.556174
 C        -0.178282        -0.690454         0.059799
 C        -1.206369        -0.211967         0.494773
 C        -2.537516        -0.015328         1.075520
 C        -2.921890         1.465216         1.038350
 O        -3.402542        -0.874886         0.258768
 C        -3.153727        -2.288505         0.532495
 C        -2.303410        -2.928045        -0.561796
 O        -2.015726        -4.094203        -0.570089
 H         1.478319        -1.997479         0.067378
 H         0.795253        -1.868507        -1.408197
 H         1.897662        -0.490049        -0.611897
 H        -2.731102        -0.443042         2.025449
 H        -2.845665         1.917481         2.028185
 H        -2.313520         1.960391         0.335389
 H        -3.995512         1.585010         0.730076
 H        -2.848290        -2.473339         1.540933
 H        -4.098602        -2.765434         0.661042
 H        -2.193045        -2.302547        -1.488544
