19
Iteration:  3127
 C         1.237405        -1.066024        -0.705994
 C        -0.124728        -0.782417        -0.206377
 C        -1.250287        -0.348508         0.122499
 C        -2.575413        -0.139848         0.839236
 C        -2.932028         1.325023         0.568771
 O        -3.656481        -0.934198         0.541090
 C        -3.302176        -2.280757         0.744432
 C        -2.395253        -2.894624        -0.254413
 O        -1.745360        -3.880307        -0.026022
 H         1.914910        -0.272125        -0.452908
 H         1.717086        -1.963143        -0.207765
 H         1.149333        -0.970578        -1.807547
 H        -2.253997        -0.238668         1.915988
 H        -4.005657         1.477332         0.674660
 H        -2.368960         1.971520         1.334478
 H        -2.610215         1.669746        -0.378154
 H        -3.046076        -2.496098         1.841045
 H        -4.334992        -2.683930         0.745058
 H        -2.462451        -2.411343        -1.286652
