19
Iteration:   718charge 0 multiplicity 1
 C         1.557691         0.100400        -0.241941
 C         0.143804         0.351028        -0.034242
 C        -0.998165         0.060572         0.373143
 C        -2.526417         0.069294         0.361107
 C        -3.175171         0.919015        -0.818749
 O        -3.070521        -1.333635         0.165141
 C        -2.608131        -2.399167         0.903944
 C        -2.996521        -3.709424         0.213500
 O        -2.975376        -4.758158         0.813883
 H         1.807880        -0.242136        -1.200988
 H         2.112554         0.995946        -0.115890
 H         1.834945        -0.634756         0.541079
 H        -2.878328         0.486550         1.317420
 H        -4.266989         1.044926        -0.677311
 H        -2.784303         1.959784        -0.976003
 H        -3.041117         0.438863        -1.780470
 H        -1.422960        -2.488437         0.996280
 H        -2.940494        -2.349280         1.955726
 H        -3.311688        -3.667883        -0.859000
