19
Iteration:  1648charge 0 multiplicity 1
 C         1.670230         0.413827        -0.196921
 C         0.252551         0.237003        -0.040624
 C        -0.924360        -0.000260         0.335836
 C        -2.399201        -0.175891         0.526190
 C        -3.300994         0.828340        -0.104490
 O        -2.933136        -1.376865        -0.122172
 C        -2.204442        -2.562089         0.105976
 C        -3.320092        -3.586121         0.197237
 O        -3.412742        -4.562731         0.983344
 H         2.120761         0.155817         0.811211
 H         2.054914        -0.215435        -1.096744
 H         1.756583         1.507399        -0.297741
 H        -2.562854        -0.147054         1.629458
 H        -3.070073         1.889138         0.249971
 H        -3.225586         0.816106        -1.166095
 H        -4.353763         0.627127         0.198775
 H        -1.502951        -2.959487        -0.704804
 H        -1.666147        -2.472553         1.088931
 H        -4.167293        -3.250360        -0.433116
