19
Iteration:  3426
 C         1.344472        -0.742422        -0.322152
 C        -0.090985        -0.592417        -0.220016
 C        -1.241823        -0.544028         0.160898
 C        -2.449851        -0.074017         0.803327
 C        -2.765006         1.345961         0.467726
 O        -3.617637        -0.975475         0.629509
 C        -3.202653        -2.381858         0.997044
 C        -2.688649        -3.036895        -0.367496
 O        -2.016086        -4.026028        -0.512949
 H         1.719350         0.323693        -0.364081
 H         1.620190        -1.108223         0.730244
 H         1.592465        -1.345772        -1.184990
 H        -2.249369        -0.272716         1.852307
 H        -2.173577         2.116499         0.997738
 H        -2.589197         1.599012        -0.623726
 H        -3.829034         1.588662         0.572573
 H        -2.462443        -2.353219         1.850209
 H        -4.106027        -2.925495         1.286013
 H        -3.097663        -2.495647        -1.312058
