19
Iteration:  1689
 C         1.557713         0.282474        -0.173501
 C         0.157974         0.109390        -0.032181
 C        -1.075753         0.037421         0.132410
 C        -2.444049        -0.159415         0.417122
 C        -3.183295         1.169246         0.074190
 O        -2.868264        -1.335251        -0.382491
 C        -2.322191        -2.509450         0.362973
 C        -3.270577        -3.663462         0.303445
 O        -3.224985        -4.730834         0.941007
 H         2.011671         0.769252         0.729205
 H         2.134516        -0.621396        -0.241940
 H         1.862253         0.886948        -1.014975
 H        -2.703763        -0.467040         1.432203
 H        -3.507350         1.594480         1.048308
 H        -2.556918         2.025402        -0.296848
 H        -3.995420         0.891818        -0.579328
 H        -1.381505        -2.629957        -0.093679
 H        -2.163984        -2.261292         1.442997
 H        -4.109227        -3.557099        -0.455056
