19
Iteration:  4165charge 0 multiplicity 1
 C         1.302198        -1.306664        -0.205242
 C        -0.002034        -0.702527         0.202474
 C        -1.050983        -0.355110         0.709780
 C        -2.496540        -0.057471         1.079360
 C        -3.038959         1.468217         0.836643
 O        -3.462469        -0.983723         0.507355
 C        -3.076320        -2.288840         0.575874
 C        -2.462138        -2.749194        -0.819191
 O        -2.363544        -3.943383        -1.049669
 H         1.882991        -1.440351         0.753146
 H         1.116485        -2.304058        -0.775103
 H         1.786654        -0.567965        -0.902694
 H        -2.475390        -0.070201         2.137547
 H        -2.469988         2.113125         1.472135
 H        -2.851019         1.666504        -0.242464
 H        -4.131404         1.631705         1.158969
 H        -2.361564        -2.468530         1.405576
 H        -3.899411        -2.963184         0.735185
 H        -2.334369        -2.057375        -1.731748
