19
Iteration:  4255charge 0 multiplicity 1
 C         1.415300        -1.035831        -0.055606
 C         0.035033        -0.599075         0.253514
 C        -1.067099        -0.370269         0.691466
 C        -2.496091        -0.066467         1.109784
 C        -3.003883         1.355250         0.981983
 O        -3.337802        -0.866070         0.261129
 C        -3.045484        -2.257384         0.471388
 C        -2.489698        -2.961854        -0.733631
 O        -2.708886        -4.111395        -1.125973
 H         2.042014        -0.389417        -0.717436
 H         2.045697        -1.217858         0.815052
 H         1.276552        -2.029781        -0.629820
 H        -2.654074        -0.534441         2.036382
 H        -2.167897         1.936652         1.453692
 H        -3.101927         1.613325        -0.109506
 H        -3.821599         1.516026         1.655073
 H        -2.142125        -2.219782         1.020831
 H        -3.917304        -2.709127         0.848188
 H        -1.853241        -2.293359        -1.284176
