19
Iteration:  2617
 C         1.454831        -0.458618        -0.532109
 C         0.000053        -0.325082        -0.183166
 C        -1.103008         0.019462         0.235904
 C        -2.533412         0.095369         0.750579
 C        -3.258751         1.177696        -0.128414
 O        -3.247762        -1.201967         0.701584
 C        -2.515405        -2.383627         1.074847
 C        -2.462318        -3.350255        -0.151726
 O        -3.020312        -4.404963        -0.038595
 H         1.726425         0.332713        -1.323677
 H         2.233971        -0.217719         0.213207
 H         1.663133        -1.371843        -1.066443
 H        -2.519145         0.380549         1.824956
 H        -4.360236         1.153255        -0.286885
 H        -2.992139         2.161894         0.150302
 H        -2.810130         1.078519        -1.176964
 H        -1.416119        -2.306827         1.440460
 H        -3.080283        -2.970970         1.847143
 H        -2.012545        -3.042892        -1.088600
