19
Iteration:  2632
 C         1.510674        -0.378585        -0.544917
 C        -0.035230        -0.417122        -0.255936
 C        -1.066905         0.026867         0.194232
 C        -2.520397         0.158472         0.836526
 C        -3.205744         1.073301        -0.151764
 O        -3.264493        -1.088706         0.809339
 C        -2.581029        -2.330261         0.990142
 C        -2.508395        -3.401808        -0.117773
 O        -3.009386        -4.502448        -0.120376
 H         1.597399         0.136391        -1.424744
 H         1.801261         0.121318         0.338851
 H         2.050392        -1.351009        -0.512015
 H        -2.477346         0.559713         1.846347
 H        -4.229960         0.831168        -0.078000
 H        -3.039140         2.135403         0.203463
 H        -2.804484         0.915249        -1.096726
 H        -1.606056        -2.012907         1.293154
 H        -3.034501        -2.820470         1.840562
 H        -1.863369        -3.043318        -0.914516
