19
Iteration:    30charge 0 multiplicity 1
 C         1.575654         0.196905        -0.132867
 C         0.181260        -0.133610        -0.203922
 C        -0.987467         0.040248         0.006908
 C        -2.447108        -0.035725         0.051054
 C        -3.232759         0.654567        -1.078643
 O        -2.735332        -1.458597        -0.121758
 C        -2.653390        -2.199540         1.079102
 C        -3.284471        -3.391689         0.811692
 O        -3.049359        -4.512726         1.234958
 H         1.768382         0.855712         0.699861
 H         2.381373        -0.580997        -0.240936
 H         1.868426         0.872176        -1.046464
 H        -2.826339         0.387336         1.032027
 H        -3.722995        -0.110265        -1.635441
 H        -3.996963         1.316052        -0.544918
 H        -2.719768         1.392067        -1.753420
 H        -1.579473        -2.363144         1.372268
 H        -3.241837        -1.675334         1.897916
 H        -4.043641        -3.357417        -0.047349
