19
Iteration:  3311
 C         1.066334        -1.083765        -0.587075
 C        -0.112828        -0.554680         0.074113
 C        -1.233835        -0.277139         0.434224
 C        -2.520545         0.059189         0.946285
 C        -2.919857         1.435004         0.362700
 O        -3.618124        -1.024994         0.536016
 C        -3.168527        -2.339787         0.777968
 C        -2.374016        -3.008283        -0.366701
 O        -1.906469        -4.124021        -0.394210
 H         1.423604        -2.101340        -0.324275
 H         1.135897        -1.014780        -1.684668
 H         2.014500        -0.389992        -0.346031
 H        -2.442191         0.101843         2.048908
 H        -1.991223         1.751260        -0.173298
 H        -3.823827         1.370803        -0.358028
 H        -3.205009         2.059164         1.215713
 H        -2.424855        -2.122447         1.524295
 H        -3.923932        -3.004406         1.250019
 H        -2.059333        -2.234891        -1.205094
