19
Iteration:  1619
 C         1.659212         0.524453        -0.230643
 C         0.345776         0.240023         0.253574
 C        -0.890757         0.161276         0.167552
 C        -2.346294        -0.117926         0.499031
 C        -3.347748         0.898121        -0.168879
 O        -2.846260        -1.429021         0.033743
 C        -2.216277        -2.741547         0.021403
 C        -3.385560        -3.750673         0.164087
 O        -3.525523        -4.553876         1.013856
 H         2.394524        -0.169278         0.084826
 H         1.678997         0.546698        -1.325934
 H         1.928948         1.526232         0.117993
 H        -2.450299         0.027214         1.595326
 H        -2.739790         1.712137        -0.580351
 H        -3.978925         0.561771        -0.999350
 H        -4.093067         1.118275         0.649651
 H        -1.790421        -3.010959        -0.946997
 H        -1.530110        -2.775053         0.842942
 H        -4.157219        -3.601053        -0.722366
