19
Iteration:   716
 C         1.545499         0.110872        -0.248867
 C         0.127967         0.341553        -0.029057
 C        -1.004385         0.084030         0.370129
 C        -2.501059         0.067175         0.383734
 C        -3.163649         0.903935        -0.827904
 O        -3.054931        -1.321322         0.155516
 C        -2.619929        -2.400272         0.908838
 C        -3.006099        -3.709193         0.211970
 O        -2.972090        -4.776313         0.816596
 H         1.815811        -0.223209        -1.246781
 H         2.147276         1.013271        -0.035489
 H         1.831658        -0.628508         0.494063
 H        -2.863904         0.429978         1.345129
 H        -4.257804         1.059472        -0.650587
 H        -2.714312         1.893829        -1.018834
 H        -3.066332         0.484401        -1.771085
 H        -1.505579        -2.488367         0.974461
 H        -2.979014        -2.283648         1.928659
 H        -3.374543        -3.696959        -0.852906
