19
Iteration:  2914charge 0 multiplicity 1
 C         1.205163        -1.032076        -0.665193
 C        -0.094094        -0.477459        -0.208243
 C        -1.227204        -0.124999         0.062651
 C        -2.593944         0.097493         0.755260
 C        -3.181948         1.482126         0.595670
 O        -3.384121        -1.061480         0.337434
 C        -3.031258        -2.286834         0.955706
 C        -2.292684        -3.124994        -0.147271
 O        -2.168006        -4.336876        -0.087566
 H         1.471529        -0.701608        -1.700850
 H         2.123784        -0.740727        -0.191308
 H         1.343131        -2.124010        -0.591245
 H        -2.490379        -0.069198         1.841889
 H        -4.167581         1.636383         1.096119
 H        -2.469006         2.113806         1.275932
 H        -3.069079         2.045423        -0.326301
 H        -2.342186        -2.203141         1.800873
 H        -4.013660        -2.607550         1.434561
 H        -1.809543        -2.583473        -0.916797
