19
Iteration:  1704charge 0 multiplicity 1
 C         1.662294         0.255978        -0.196601
 C         0.257423         0.082007         0.024448
 C        -1.008124         0.093197         0.174273
 C        -2.473811        -0.065288         0.283695
 C        -3.271109         1.235922         0.133446
 O        -2.964661        -1.313727        -0.369153
 C        -2.406712        -2.411201         0.379649
 C        -3.271734        -3.781730         0.273306
 O        -3.163043        -4.847956         0.953571
 H         2.099927         1.013798         0.498023
 H         2.226139        -0.816034         0.004638
 H         1.841069         0.467345        -1.299277
 H        -2.512741        -0.295705         1.378782
 H        -3.936997         1.497312         0.976125
 H        -2.571125         1.970768        -0.152092
 H        -3.951435         1.236539        -0.790274
 H        -1.331548        -2.782827         0.155852
 H        -2.363035        -2.124266         1.458301
 H        -4.178186        -3.718556        -0.524462
