19
Iteration:  3730
 C         1.330065        -0.640072        -0.321022
 C        -0.065794        -0.682017        -0.144709
 C        -1.174993        -0.746356         0.329981
 C        -2.393456        -0.242424         0.929826
 C        -2.635785         1.278437         0.764097
 O        -3.589078        -0.921775         0.378124
 C        -3.538696        -2.347782         0.635388
 C        -2.614137        -2.865664        -0.469068
 O        -2.008848        -3.893732        -0.394821
 H         1.594779        -0.268711        -1.291556
 H         1.980393        -0.293256         0.510977
 H         1.852644        -1.657925        -0.491642
 H        -2.581893        -0.507691         1.996383
 H        -1.819289         1.898665         0.353652
 H        -3.487584         1.329393         0.046063
 H        -3.119482         1.723970         1.612387
 H        -3.172970        -2.486127         1.687519
 H        -4.638171        -2.671410         0.464843
 H        -2.772194        -2.268541        -1.413891
