19
Iteration:  1650
 C         1.661339         0.406817        -0.188136
 C         0.234197         0.230990        -0.053254
 C        -0.912132        -0.005042         0.328853
 C        -2.403815        -0.186106         0.529487
 C        -3.285662         0.844716        -0.111664
 O        -2.934079        -1.380007        -0.133804
 C        -2.202518        -2.565405         0.125193
 C        -3.329102        -3.571563         0.195790
 O        -3.393562        -4.553843         0.978359
 H         2.051934         0.182613         0.795569
 H         2.031540        -0.244700        -1.048943
 H         1.763239         1.493458        -0.329424
 H        -2.592116        -0.169714         1.633095
 H        -3.157919         1.845135         0.365844
 H        -3.209427         0.875518        -1.150155
 H        -4.348771         0.643505         0.203344
 H        -1.464738        -2.940683        -0.649642
 H        -1.694407        -2.560910         1.090414
 H        -4.149546        -3.259904        -0.403033
