19
Iteration:  4394charge 0 multiplicity 1
 C         1.643278        -0.363375         0.147786
 C         0.302525        -0.578838         0.482123
 C        -0.931205        -0.567387         0.570819
 C        -2.352985        -0.177352         1.024467
 C        -2.625210         1.320966         0.985238
 O        -3.400152        -0.886471         0.282841
 C        -3.323156        -2.307283         0.388938
 C        -3.037278        -3.108508        -0.994423
 O        -2.858393        -4.326772        -1.087934
 H         2.303087        -1.130765         0.554852
 H         1.618854        -0.480807        -0.949054
 H         2.095784         0.538286         0.479360
 H        -2.275269        -0.427305         2.024444
 H        -2.086646         1.825777         1.772418
 H        -2.350208         1.952741         0.097878
 H        -3.644398         1.348161         1.400664
 H        -2.750781        -2.819384         1.219110
 H        -4.380597        -2.650534         0.797735
 H        -3.368032        -2.574680        -1.899735
