19
Iteration:  3874
 C         1.014924        -1.350768        -0.519139
 C        -0.125497        -0.646496         0.060617
 C        -1.171232        -0.241065         0.511252
 C        -2.573393        -0.005327         1.101439
 C        -3.028966         1.497114         1.032128
 O        -3.427274        -0.815949         0.319479
 C        -3.150173        -2.177424         0.525178
 C        -2.265175        -2.983974        -0.618375
 O        -1.971770        -4.185225        -0.602861
 H         1.566791        -1.896706         0.226877
 H         0.612527        -1.855609        -1.399145
 H         1.560351        -0.597753        -1.150231
 H        -2.425682        -0.219758         2.129051
 H        -2.780268         1.849181         2.015864
 H        -2.471828         2.128941         0.401860
 H        -4.133662         1.613313         0.886742
 H        -2.582108        -2.293581         1.389939
 H        -4.069287        -2.671646         0.350782
 H        -2.134279        -2.337768        -1.536158
