19
Iteration:  3216charge 0 multiplicity 1
 C         0.976026        -1.331142        -0.638423
 C        -0.002530        -0.432233         0.007957
 C        -1.189023        -0.133596         0.259935
 C        -2.442939         0.091639         0.936493
 C        -3.246671         1.471059         0.589804
 O        -3.394520        -0.977082         0.371991
 C        -3.170178        -2.307415         0.752052
 C        -2.367086        -3.020535        -0.391194
 O        -1.829355        -4.126021        -0.155631
 H         0.848934        -1.315368        -1.743511
 H         2.070174        -1.178159        -0.417506
 H         0.766295        -2.316535        -0.264957
 H        -2.399507        -0.192823         2.012502
 H        -2.986944         2.151085         1.398490
 H        -2.897624         1.889238        -0.338631
 H        -4.317689         1.247528         0.542478
 H        -2.462093        -2.601877         1.584681
 H        -4.164848        -2.800975         0.846082
 H        -2.391994        -2.473530        -1.367302
