19
Iteration:   645charge 0 multiplicity 1
 C         1.529331         0.524694        -0.300397
 C         0.211314         0.214252         0.175155
 C        -0.957108        -0.128823         0.256719
 C        -2.410296        -0.190627         0.254366
 C        -3.090031         0.814955        -0.682876
 O        -2.796729        -1.501183        -0.224988
 C        -2.840914        -2.271552         1.025592
 C        -3.401139        -3.608811         0.600186
 O        -2.884721        -4.667817         0.709381
 H         1.673651         1.622109        -0.543523
 H         2.381177         0.308770         0.409533
 H         1.686260        -0.157159        -1.203081
 H        -2.691767        -0.014454         1.316343
 H        -4.155613         0.597064        -0.663549
 H        -2.823109         1.887719        -0.584531
 H        -2.683863         0.710715        -1.743939
 H        -1.868986        -2.289484         1.408239
 H        -3.565937        -1.905773         1.801758
 H        -4.385962        -3.541980         0.039261
