19
Iteration:  2780
 C         1.368801        -0.421671        -0.688507
 C        -0.011122        -0.267505        -0.145123
 C        -1.099068        -0.429784         0.308775
 C        -2.440506         0.039095         0.774275
 C        -2.998253         1.219540         0.001432
 O        -3.427930        -1.071586         0.755509
 C        -2.808709        -2.293764         1.072862
 C        -2.740506        -3.242209        -0.198482
 O        -2.521128        -4.447552        -0.169846
 H         2.078110        -0.743235         0.153876
 H         1.357736        -1.121683        -1.571261
 H         1.638675         0.596749        -0.930068
 H        -2.412436         0.269057         1.850937
 H        -4.105924         1.138754         0.086184
 H        -2.573231         2.206361         0.379226
 H        -2.760496         1.038041        -1.111986
 H        -1.786510        -2.167928         1.431194
 H        -3.368736        -2.704418         1.959305
 H        -2.988019        -2.668014        -1.193312
