19
Iteration:  4709charge 0 multiplicity 1
 C         1.738160        -0.401692         0.427931
 C         0.370171        -0.303637         0.587936
 C        -0.841094        -0.282546         0.542632
 C        -2.264476        -0.294262         1.095441
 C        -2.826807         1.181552         1.052962
 O        -3.151786        -1.097173         0.266363
 C        -2.776481        -2.418661         0.145088
 C        -3.581391        -3.034089        -1.043808
 O        -3.274832        -4.187980        -1.253326
 H         2.132099        -0.034039         1.408118
 H         1.793077        -1.613279         0.507129
 H         2.257416        -0.053695        -0.495381
 H        -2.211370        -0.727360         2.180399
 H        -2.166906         1.819862         1.636409
 H        -2.940706         1.419569        -0.069006
 H        -3.797819         1.199304         1.534087
 H        -1.734797        -2.544525        -0.105007
 H        -2.916736        -3.069592         1.082842
 H        -4.278001        -2.395431        -1.716808
