19
Iteration:  2591charge 0 multiplicity 1
 C         1.292709        -0.552787        -0.592845
 C         0.104815        -0.023372         0.033793
 C        -1.115570        -0.195991         0.288822
 C        -2.481036         0.032819         0.612050
 C        -3.270914         1.081686        -0.073535
 O        -3.151509        -1.215118         0.469046
 C        -2.495797        -2.251550         1.128506
 C        -2.514329        -3.291738        -0.007845
 O        -2.997578        -4.405289        -0.074846
 H         1.842878         0.303095        -1.065751
 H         2.127730        -1.032678         0.011366
 H         0.980108        -1.132291        -1.491130
 H        -2.538327         0.311987         1.715986
 H        -4.306441         1.038956         0.333312
 H        -2.849521         2.123011         0.169900
 H        -3.356306         1.037655        -1.143522
 H        -1.448686        -2.182485         1.337703
 H        -3.003150        -2.549732         2.070826
 H        -2.163934        -2.794354        -0.987851
