19
Iteration:  1703
 C         1.664444         0.261149        -0.196728
 C         0.239884         0.078540         0.021551
 C        -1.014929         0.090108         0.175569
 C        -2.470176        -0.075913         0.284896
 C        -3.259681         1.237679         0.140145
 O        -2.959340        -1.314249        -0.375147
 C        -2.394028        -2.412053         0.376476
 C        -3.271276        -3.782707         0.278404
 O        -3.169788        -4.841998         0.953474
 H         2.087233         1.016435         0.524831
 H         2.175539        -0.815799        -0.015272
 H         1.837621         0.504617        -1.277227
 H        -2.492190        -0.285946         1.375581
 H        -3.949591         1.518088         0.971871
 H        -2.572846         1.933739        -0.195083
 H        -3.950796         1.208801        -0.774096
 H        -1.350236        -2.787676         0.157060
 H        -2.346507        -2.105813         1.458205
 H        -4.165171        -3.680367        -0.520057
