19
Iteration:  4154charge 0 multiplicity 1
 C         1.207755        -1.241717        -0.177583
 C        -0.082868        -0.784015         0.175929
 C        -1.115998        -0.379178         0.688061
 C        -2.492845        -0.020442         1.166370
 C        -2.943398         1.429757         0.804164
 O        -3.432802        -0.932825         0.459386
 C        -3.034389        -2.343396         0.553031
 C        -2.523433        -2.771485        -0.759118
 O        -2.285499        -3.913554        -1.052368
 H         1.875512        -1.635610         0.645621
 H         1.195985        -2.112166        -0.956334
 H         1.835935        -0.444872        -0.665998
 H        -2.589281        -0.301576         2.212451
 H        -2.207103         2.119844         1.171403
 H        -2.968882         1.619706        -0.303568
 H        -4.008217         1.628853         1.179141
 H        -2.237735        -2.516342         1.303908
 H        -3.932108        -2.879594         0.806952
 H        -2.499547        -1.803293        -1.426646
