19
Iteration:  4813
 C         1.861816        -0.063299         0.352038
 C         0.455292        -0.248457         0.718154
 C        -0.734038        -0.511159         0.925664
 C        -2.243050        -0.340106         1.062629
 C        -2.839360         1.069697         1.108119
 O        -2.946063        -1.071236         0.013376
 C        -2.827793        -2.479665         0.105603
 C        -3.684797        -3.101599        -0.928288
 O        -3.617477        -4.207698        -1.418643
 H         2.278435         0.189223        -0.676195
 H         2.205387         0.931913         0.939499
 H         2.582947        -0.853069         0.744262
 H        -2.384854        -0.926259         2.030811
 H        -2.547358         1.576492         1.999713
 H        -2.336815         1.650960         0.292050
 H        -3.927588         0.969477         0.964085
 H        -1.746308        -2.776813        -0.078328
 H        -3.172309        -2.867621         1.079647
 H        -4.667456        -2.547354        -1.076746
