19
Iteration:  4538
 C         1.585427        -0.615482         0.080648
 C         0.206595        -0.414774         0.420210
 C        -0.914342        -0.330904         0.908212
 C        -2.376200        -0.167536         1.102881
 C        -2.971433         1.302515         1.027472
 O        -3.088713        -0.983091         0.128018
 C        -2.808791        -2.360334         0.375901
 C        -2.905699        -3.093599        -0.996738
 O        -3.311402        -4.216752        -1.141018
 H         1.908613        -0.157156        -0.904155
 H         2.185922        -0.263045         0.918611
 H         1.802841        -1.700578        -0.016781
 H        -2.761433        -0.635889         2.086324
 H        -2.748647         2.039913         1.894728
 H        -2.653021         1.534328        -0.022236
 H        -4.050750         1.118897         0.951849
 H        -1.872988        -2.606484         0.781957
 H        -3.497258        -2.702773         1.172155
 H        -2.567622        -2.469853        -1.801962
