19
Iteration:   730
 C         1.621525         0.067879        -0.193001
 C         0.135620         0.290259        -0.003785
 C        -1.025269        -0.002390         0.281156
 C        -2.601836         0.045818         0.253076
 C        -3.240335         0.946312        -0.781118
 O        -3.174004        -1.309543         0.199569
 C        -2.476735        -2.411882         0.924812
 C        -2.901514        -3.622618         0.205134
 O        -3.006746        -4.708384         0.816841
 H         1.684248        -0.588908        -1.017979
 H         2.205162         0.928965        -0.332705
 H         2.108082        -0.470193         0.664930
 H        -2.925470         0.423795         1.243803
 H        -4.306989         0.749725        -0.682715
 H        -2.934660         1.981433        -0.519887
 H        -2.843170         0.592596        -1.788646
 H        -1.298298        -2.205929         0.819842
 H        -2.818135        -2.608690         1.954806
 H        -2.983474        -3.498225        -0.894085
