19
Iteration:   486charge 0 multiplicity 1
 C         1.540220         0.422187         0.009100
 C         0.108473         0.323394         0.129735
 C        -1.081157         0.160341         0.151362
 C        -2.464625        -0.106708         0.147931
 C        -3.185291         0.968889        -0.769497
 O        -2.844259        -1.471509        -0.153873
 C        -2.239273        -2.652506         0.474953
 C        -3.189747        -3.838780         0.320129
 O        -3.297975        -4.540336         1.353356
 H         1.833646        -0.528754        -0.431819
 H         1.844745         1.232310        -0.672116
 H         2.028602         0.628487         0.960033
 H        -2.864290         0.028122         1.195001
 H        -4.004446         1.407582        -0.265038
 H        -2.492890         1.719435        -1.153244
 H        -3.593839         0.448280        -1.671308
 H        -1.195657        -2.957705         0.292185
 H        -2.191858        -2.483283         1.534018
 H        -3.815744        -3.850771        -0.594298
