19
Iteration:   624
 C         1.669458         0.625979        -0.247094
 C         0.253983         0.271081         0.083982
 C        -0.937822         0.016526         0.088183
 C        -2.386734        -0.236485         0.254582
 C        -2.993127         0.717311        -0.687750
 O        -2.952565        -1.524892        -0.142910
 C        -2.890190        -2.322708         0.964751
 C        -3.547590        -3.668012         0.630941
 O        -2.869509        -4.669257         0.728335
 H         1.928342         1.663735         0.164902
 H         2.417464         0.010514         0.355601
 H         1.912033         0.476381        -1.338944
 H        -2.583100        -0.038691         1.313117
 H        -3.994792         0.395992        -0.918670
 H        -3.014486         1.673168        -0.110793
 H        -2.323966         1.023582        -1.571257
 H        -1.913322        -2.520543         1.322048
 H        -3.474114        -1.907065         1.858464
 H        -4.667237        -3.751457         0.431906
