19
Iteration:  2051
 C         1.133697        -1.088167        -0.575698
 C        -0.105129        -0.561968         0.008767
 C        -1.271278        -0.309660         0.437169
 C        -2.703567         0.114437         0.709107
 C        -3.224135         1.193481        -0.320759
 O        -3.617524        -1.043954         0.473014
 C        -2.946052        -2.184366         1.029368
 C        -2.267079        -2.935606        -0.059116
 O        -1.730168        -4.049338         0.093457
 H         1.631950        -0.386075        -1.333780
 H         1.985541        -1.185841         0.137177
 H         1.009025        -2.123544        -0.926367
 H        -2.890734         0.344575         1.767566
 H        -3.929537         1.822649         0.188703
 H        -2.374523         1.769504        -0.784103
 H        -3.777901         0.673155        -1.090465
 H        -2.394069        -1.972551         1.967640
 H        -3.715451        -2.904551         1.246214
 H        -2.215567        -2.478147        -1.048381
