19
Iteration:  2955
 C         1.208233        -1.101270        -0.712255
 C        -0.169025        -0.491803        -0.343764
 C        -1.161589        -0.128651         0.188837
 C        -2.440983         0.048891         0.936636
 C        -3.174237         1.249610         0.533440
 O        -3.432021        -0.817705         0.494143
 C        -3.304754        -2.205190         0.722077
 C        -2.234532        -3.118819        -0.152511
 O        -2.025557        -4.298778        -0.059975
 H         1.258936        -1.667429        -1.722335
 H         1.743222        -0.105795        -0.822931
 H         1.580518        -1.653360         0.086053
 H        -2.298554         0.074305         2.043388
 H        -4.154142         1.196040         1.013399
 H        -2.665512         2.183000         1.041805
 H        -3.131557         1.367616        -0.516404
 H        -2.948778        -2.259332         1.779588
 H        -4.193422        -2.924005         0.849805
 H        -1.388632        -2.577089        -0.856299
