19
Iteration:  1881charge 0 multiplicity 1
 C         1.398015        -0.272718        -0.333540
 C        -0.039197        -0.222418         0.078513
 C        -1.218618        -0.003773         0.193669
 C        -2.535824         0.134216         0.575619
 C        -3.062543         1.040441        -0.569248
 O        -3.280477        -1.122019         0.732701
 C        -2.552730        -2.372607         1.014405
 C        -2.894011        -3.416567        -0.023499
 O        -2.567050        -4.593807         0.103501
 H         1.784554        -1.276871        -0.452288
 H         1.599240         0.207641        -1.347057
 H         2.176167         0.271809         0.287421
 H        -2.600445         0.771069         1.459891
 H        -4.034592         1.473957        -0.391719
 H        -2.285429         1.761456        -0.951864
 H        -3.210454         0.317927        -1.314502
 H        -1.529463        -2.101686         1.014982
 H        -2.840441        -2.794074         2.000145
 H        -3.499790        -3.036155        -0.971931
