19
Iteration:  2906
 C         1.189171        -0.977065        -0.654114
 C        -0.085068        -0.483344        -0.180441
 C        -1.237747        -0.110394         0.102146
 C        -2.558333         0.052068         0.713273
 C        -3.133829         1.471890         0.612808
 O        -3.423362        -0.996657         0.309223
 C        -2.991927        -2.230267         0.946787
 C        -2.349722        -3.185839        -0.088115
 O        -2.151562        -4.387950        -0.119168
 H         1.357038        -0.616314        -1.650990
 H         2.059146        -0.788946         0.012219
 H         1.002577        -2.125884        -0.816489
 H        -2.410820        -0.117721         1.812035
 H        -4.134259         1.544862         1.072310
 H        -2.509860         2.113711         1.147976
 H        -3.149244         1.811829        -0.458895
 H        -2.194027        -2.004722         1.699118
 H        -3.740339        -2.716011         1.536939
 H        -1.919455        -2.598350        -0.918381
