19
Iteration:  2309charge 0 multiplicity 1
 C         1.201195        -0.759664        -0.740174
 C        -0.212818        -0.435895        -0.386838
 C        -1.208258        -0.408930         0.266333
 C        -2.539559        -0.097617         0.638407
 C        -2.893847         1.371060         0.413322
 O        -3.522167        -0.995073         0.072097
 C        -3.459122        -2.343746         0.564176
 C        -2.295109        -3.248779         0.016238
 O        -1.822906        -4.032078         0.767131
 H         1.767797         0.244793        -0.764684
 H         1.628295        -1.257959         0.157457
 H         1.371188        -1.293244        -1.709262
 H        -2.594993        -0.220741         1.745376
 H        -3.987383         1.395755         0.263147
 H        -2.553510         2.090286         1.246386
 H        -2.372477         1.682600        -0.528795
 H        -3.350799        -2.336713         1.636840
 H        -4.335467        -2.928655         0.273910
 H        -1.999805        -3.058906        -1.075666
