19
Iteration:  4469charge 0 multiplicity 1
 C         1.766209        -0.513366         0.225424
 C         0.309827        -0.375292         0.393594
 C        -0.906169        -0.331388         0.530315
 C        -2.287033        -0.194128         1.020130
 C        -2.876540         1.287915         1.087269
 O        -3.187948        -0.980420         0.226707
 C        -3.272186        -2.395127         0.401471
 C        -3.123744        -3.083625        -1.002941
 O        -3.047104        -4.303134        -1.097035
 H         2.383649         0.192332         0.790900
 H         2.030694        -1.572300         0.545928
 H         2.108843        -0.397485        -0.806933
 H        -2.165332        -0.634616         2.087951
 H        -2.261990         2.069892         1.582312
 H        -3.140785         1.564173        -0.002371
 H        -3.861347         1.286043         1.668942
 H        -2.451843        -2.725397         1.003060
 H        -4.147183        -2.779748         0.922221
 H        -2.924044        -2.411691        -1.858420
