19
Iteration:  2680charge 0 multiplicity 1
 C         1.569265        -0.283240        -0.574426
 C         0.170854        -0.190082        -0.120887
 C        -1.056254        -0.159224         0.111512
 C        -2.464710        -0.061578         0.696546
 C        -3.196658         1.019149        -0.154921
 O        -3.345219        -1.218996         0.793541
 C        -2.691094        -2.441130         1.182902
 C        -2.745475        -3.147885        -0.144892
 O        -2.874854        -4.369089        -0.122161
 H         1.522150        -0.886826        -1.522371
 H         2.016191         0.761441        -0.615717
 H         2.087134        -0.808640         0.202851
 H        -2.220961         0.217039         1.736526
 H        -4.120373         1.441185         0.341195
 H        -2.464213         1.781479        -0.328950
 H        -3.364696         0.498015        -1.165261
 H        -1.744473        -2.258590         1.614970
 H        -3.320533        -2.915935         1.975854
 H        -2.766167        -2.467657        -1.003697
