19
Iteration:  2488charge 0 multiplicity 1
 C         1.509330        -0.448612        -0.672144
 C         0.170411        -0.073364        -0.167878
 C        -1.079715        -0.110567         0.162424
 C        -2.511633        -0.043323         0.557850
 C        -3.174783         1.285697         0.252284
 O        -3.348436        -1.210699         0.171543
 C        -2.944862        -2.294184         1.048373
 C        -2.493314        -3.363845         0.049744
 O        -2.758905        -4.547291         0.251921
 H         2.036081        -1.050062         0.086725
 H         1.454892        -0.886219        -1.673517
 H         2.085369         0.492394        -0.805949
 H        -2.531736        -0.092573         1.673517
 H        -4.246430         1.311513         0.539701
 H        -2.655558         1.917472         0.904389
 H        -3.042061         1.685034        -0.805031
 H        -2.113324        -2.175639         1.694110
 H        -3.752214        -2.694184         1.632048
 H        -2.083740        -3.020675        -0.873457
