19
Iteration:   378charge 0 multiplicity 1
 C         1.574817         0.125189         0.191264
 C         0.141827         0.208421         0.053424
 C        -1.087640         0.169473         0.020313
 C        -2.511856        -0.158952         0.147673
 C        -3.458097         0.737540        -0.667334
 O        -2.900846        -1.483264        -0.353365
 C        -2.069447        -2.491742         0.245541
 C        -3.099101        -3.540226         0.518887
 O        -3.224301        -4.282891         1.479638
 H         2.119277         1.024932        -0.016587
 H         1.864356        -0.174551         1.205963
 H         1.908443        -0.620548        -0.600987
 H        -2.847353        -0.178286         1.161768
 H        -3.390881         0.542026        -1.694660
 H        -4.437294         0.508700        -0.279548
 H        -3.153054         1.782116        -0.465631
 H        -1.253738        -2.696516        -0.448461
 H        -1.671580        -2.113299         1.236159
 H        -3.883802        -3.624515        -0.291274
