19
Iteration:  3588charge 0 multiplicity 1
 C         1.043372        -0.943372        -0.686345
 C        -0.045293        -0.651171         0.269703
 C        -1.060245        -0.063046         0.623153
 C        -2.537994         0.065250         0.994443
 C        -3.033357         1.474469         0.774501
 O        -3.324619        -0.852046         0.209798
 C        -3.101406        -2.276480         0.513935
 C        -2.305790        -3.191584        -0.453269
 O        -2.307656        -4.409438        -0.384797
 H         1.775145        -1.670092        -0.440107
 H         0.412548        -1.197879        -1.558415
 H         1.716133        -0.084530        -0.908392
 H        -2.559611        -0.229265         2.087584
 H        -2.245719         2.071777         1.266576
 H        -3.031658         1.570225        -0.366401
 H        -4.010394         1.650149         1.165037
 H        -2.662507        -2.450824         1.549074
 H        -4.121291        -2.765432         0.633880
 H        -1.511805        -2.880556        -1.154700
