19
Iteration:  2395
 C         1.354212        -0.302165        -0.699055
 C         0.031240        -0.096182        -0.232479
 C        -1.107888        -0.452304         0.182982
 C        -2.450259        -0.181908         0.662309
 C        -2.770661         1.235324         0.231266
 O        -3.538157        -1.008761         0.151367
 C        -3.452418        -2.304373         0.742968
 C        -2.559123        -3.333586         0.078774
 O        -2.192455        -4.454196         0.520798
 H         1.281539        -0.934655        -1.631812
 H         2.024453         0.593825        -0.767721
 H         1.904989        -1.071493        -0.062851
 H        -2.374080        -0.254676         1.778036
 H        -3.396004         1.803219         0.920958
 H        -1.841618         1.911098         0.196258
 H        -3.293551         1.210648        -0.729816
 H        -3.222641        -2.056154         1.832844
 H        -4.498591        -2.724259         0.934417
 H        -2.285308        -3.062172        -0.900985
