19
Iteration:   947charge 0 multiplicity 1
 C         1.355220        -0.030257        -0.343579
 C         0.066291         0.041536         0.177539
 C        -1.133802        -0.126832         0.339198
 C        -2.566229         0.044922         0.320039
 C        -2.896009         1.219759        -0.627556
 O        -3.334307        -1.200937        -0.043074
 C        -2.975306        -2.213269         0.817644
 C        -2.642767        -3.719693         0.286958
 O        -2.590979        -4.811341         0.867419
 H         1.312624         0.649072        -1.214674
 H         2.163530         0.270744         0.297291
 H         1.552013        -1.128342        -0.660203
 H        -2.996196         0.319873         1.306014
 H        -3.799749         1.612310        -0.399019
 H        -2.057813         1.880394        -0.705034
 H        -2.867487         0.764047        -1.629591
 H        -1.919821        -2.196423         1.212447
 H        -3.721148        -2.214652         1.658001
 H        -2.210543        -3.583730        -0.752944
