19
Iteration:  2778charge 0 multiplicity 1
 C         1.386501        -0.416919        -0.679734
 C         0.001746        -0.276605        -0.154653
 C        -1.106833        -0.420145         0.291286
 C        -2.441923         0.042912         0.802934
 C        -2.995591         1.216362         0.002809
 O        -3.440321        -1.054820         0.762900
 C        -2.813790        -2.300207         1.062100
 C        -2.740474        -3.245204        -0.191013
 O        -2.524304        -4.455814        -0.170907
 H         2.043135        -0.747946         0.130187
 H         1.393089        -1.047902        -1.637952
 H         1.596092         0.609392        -0.906234
 H        -2.437231         0.280917         1.875169
 H        -4.109467         1.111088         0.076150
 H        -2.589738         2.169299         0.285751
 H        -2.711138         0.943993        -1.098545
 H        -1.729261        -2.150087         1.355347
 H        -3.396042        -2.747705         1.953853
 H        -2.959524        -2.670544        -1.181363
