19
Iteration:  4743charge 0 multiplicity 1
 C         1.810129        -0.261151         0.513320
 C         0.395146        -0.293766         0.448947
 C        -0.768443        -0.392509         0.661782
 C        -2.234822        -0.277363         1.029414
 C        -2.692720         1.191678         1.185163
 O        -3.260933        -0.979239         0.152492
 C        -2.874269        -2.381083         0.175716
 C        -3.641260        -3.236549        -0.959476
 O        -3.314484        -4.309300        -1.422684
 H         2.276610         0.675953         0.911060
 H         2.056040        -0.972934         1.409946
 H         2.470997        -0.547461        -0.299469
 H        -2.441467        -0.801768         2.005737
 H        -1.857865         1.875610         1.505776
 H        -3.027459         1.653230         0.247704
 H        -3.528499         1.268607         1.878585
 H        -1.823397        -2.381779         0.025433
 H        -3.128398        -2.844942         1.198193
 H        -4.591773        -2.709229        -1.363877
