19
Iteration:  4172charge 0 multiplicity 1
 C         1.344689        -1.313925        -0.229946
 C         0.046255        -0.665227         0.253243
 C        -1.069854        -0.303600         0.684344
 C        -2.486786        -0.009502         1.021830
 C        -3.042831         1.406202         0.853079
 O        -3.483622        -0.939511         0.573858
 C        -3.049676        -2.285901         0.533795
 C        -2.469693        -2.783846        -0.852558
 O        -2.405414        -3.971293        -1.048182
 H         1.985672        -1.345168         0.658070
 H         1.113195        -2.353050        -0.536258
 H         1.952566        -0.889453        -1.012945
 H        -2.677275        -0.246499         2.143598
 H        -2.609710         2.106249         1.627366
 H        -3.009641         1.907585        -0.111747
 H        -4.118415         1.332633         0.932764
 H        -2.514615        -2.656324         1.433597
 H        -3.890701        -2.994217         0.728358
 H        -2.122115        -2.007330        -1.550254
