19
Iteration:   335charge 0 multiplicity 1
 C         1.567891         0.115773         0.175992
 C         0.122900         0.315609        -0.028903
 C        -1.102001         0.277941        -0.083357
 C        -2.454595        -0.057958         0.051850
 C        -3.375115         0.890415        -0.616746
 O        -2.770346        -1.423776        -0.504066
 C        -2.227628        -2.504002         0.330163
 C        -3.282054        -3.744785         0.646434
 O        -3.153391        -4.520729         1.605147
 H         1.825239         0.786333         0.937689
 H         1.682585        -0.851150         0.658712
 H         2.223329         0.185510        -0.746867
 H        -2.649701        -0.153220         1.173904
 H        -2.829193         1.738391        -0.916610
 H        -3.584463         0.336416        -1.517565
 H        -4.209046         1.186693         0.039833
 H        -1.466626        -3.078506        -0.250882
 H        -1.912210        -2.097703         1.338165
 H        -4.149571        -3.670744        -0.100634
