19
Iteration:  4370
 C         1.685660        -0.439820         0.062609
 C         0.244793        -0.487411         0.417800
 C        -0.936179        -0.556084         0.724315
 C        -2.395242        -0.285090         1.078098
 C        -2.631389         1.241752         0.915347
 O        -3.397976        -0.914245         0.248392
 C        -3.379074        -2.333307         0.401779
 C        -3.014255        -3.020993        -0.918657
 O        -2.817383        -4.212659        -1.062146
 H         2.167862        -1.417727        -0.032490
 H         1.788990         0.103510        -0.908494
 H         2.254721         0.044212         0.825326
 H        -2.466524        -0.625018         2.079935
 H        -2.374251         1.936998         1.718907
 H        -2.017345         1.605716         0.060868
 H        -3.754318         1.393571         0.769104
 H        -2.699741        -2.801498         1.057076
 H        -4.373945        -2.518435         0.911293
 H        -2.837827        -2.328545        -1.756096
