19
Iteration:  1894charge 0 multiplicity 1
 C         1.356659        -0.301096        -0.306275
 C        -0.021831        -0.387465         0.048018
 C        -1.147247        -0.023721         0.119104
 C        -2.609685         0.222834         0.533545
 C        -3.148124         1.112088        -0.616272
 O        -3.241321        -1.117711         0.806057
 C        -2.530717        -2.336465         1.074320
 C        -2.815581        -3.406644         0.018066
 O        -2.543805        -4.618027         0.018710
 H         1.926026        -1.255559        -0.066633
 H         1.331412        -0.067288        -1.370148
 H         1.696953         0.510488         0.379641
 H        -2.628402         0.605339         1.544580
 H        -4.099113         1.606132        -0.423697
 H        -2.463907         1.961860        -0.654925
 H        -3.078144         0.641812        -1.549196
 H        -1.476616        -2.369665         1.265847
 H        -3.001654        -2.677748         1.987274
 H        -3.499293        -2.960323        -0.818682
