19
Iteration:  1538charge 0 multiplicity 1
 C         1.541703         0.753202        -0.116332
 C         0.233231         0.132017        -0.152085
 C        -0.937741        -0.106699         0.178311
 C        -2.377384        -0.276578         0.485932
 C        -3.102274         1.083494        -0.050889
 O        -2.777692        -1.492065        -0.208607
 C        -2.343645        -2.695195         0.466079
 C        -3.328722        -3.738793         0.050191
 O        -3.528612        -4.516262         0.963875
 H         2.145746         0.696194        -1.078232
 H         1.465859         1.856106         0.054463
 H         2.261722         0.371580         0.620418
 H        -2.621604        -0.405768         1.575369
 H        -3.670244         0.861059        -0.957215
 H        -3.779247         1.206316         0.765187
 H        -2.543921         1.945369        -0.236762
 H        -1.319387        -2.996081         0.226742
 H        -2.329168        -2.533852         1.544233
 H        -3.799467        -3.919165        -1.006148
