19
Iteration:  2846
 C         1.231774        -0.767684        -0.707814
 C        -0.028781        -0.399256        -0.168114
 C        -1.045158        -0.048014         0.464767
 C        -2.376945         0.165372         0.838685
 C        -3.232498         1.305525         0.252620
 O        -3.291421        -0.974503         0.558308
 C        -2.936038        -2.294089         0.864491
 C        -2.658388        -3.343077        -0.311228
 O        -2.295738        -4.467194        -0.052972
 H         1.934365         0.127218        -0.518890
 H         1.731683        -1.722935        -0.379703
 H         1.098736        -0.915630        -1.772190
 H        -2.328325         0.373952         1.938174
 H        -4.111933         1.317818         0.925294
 H        -2.708878         2.349419         0.148001
 H        -3.573664         1.046649        -0.775270
 H        -2.113901        -2.293833         1.576445
 H        -3.908349        -2.833420         1.223941
 H        -2.911634        -3.014458        -1.325663
