19
Iteration:  2970
 C         1.173487        -1.022762        -0.781294
 C        -0.130607        -0.502334        -0.290065
 C        -1.135878        -0.219318         0.289327
 C        -2.458560         0.054383         0.977060
 C        -3.115221         1.415960         0.529041
 O        -3.465794        -0.909276         0.457042
 C        -3.283238        -2.315896         0.695989
 C        -2.280848        -3.076653        -0.175333
 O        -1.982237        -4.273399        -0.016531
 H         0.962661        -1.907444        -1.365710
 H         1.795039        -0.327808        -1.280384
 H         1.714674        -1.416480         0.131876
 H        -2.322230        -0.129993         2.044557
 H        -4.131546         1.526844         0.981336
 H        -2.508151         2.306110         0.630097
 H        -3.353735         1.203920        -0.557193
 H        -2.901755        -2.540670         1.695909
 H        -4.322558        -2.606525         0.570255
 H        -1.830269        -2.383904        -0.916484
