19
Iteration:  1043
 C         1.675824         0.071153        -0.122329
 C         0.217003        -0.089227         0.077328
 C        -0.981903        -0.109185        -0.008639
 C        -2.469620        -0.003893         0.146807
 C        -3.281555         1.031091        -0.565406
 O        -3.151125        -1.354020         0.091188
 C        -3.123955        -2.290770         1.135852
 C        -3.099599        -3.563568         0.333733
 O        -2.421478        -4.533600         0.569111
 H         2.044742        -0.968975        -0.091744
 H         1.849885         0.436823        -1.121174
 H         2.242808         0.639627         0.650022
 H        -2.622694         0.277443         1.190996
 H        -4.319792         0.702566        -0.354717
 H        -3.154133         1.986800        -0.013477
 H        -3.004327         1.142272        -1.669030
 H        -2.271006        -2.197460         1.759806
 H        -4.077085        -2.236906         1.712428
 H        -3.599572        -3.355163        -0.669837
