19
Iteration:  2507charge 0 multiplicity 1
 C         1.355215        -0.425838        -0.577865
 C        -0.010159        -0.152628        -0.286003
 C        -1.061875         0.076044         0.215634
 C        -2.440040         0.021886         0.683200
 C        -3.127771         1.305074         0.148593
 O        -3.182116        -1.127561         0.249527
 C        -2.884948        -2.315284         1.020638
 C        -2.497965        -3.481906         0.074958
 O        -2.820786        -4.670629         0.138928
 H         1.838821        -0.803234         0.407495
 H         1.355102        -1.278488        -1.294529
 H         1.821128         0.382444        -1.099051
 H        -2.432508         0.014245         1.780078
 H        -4.204960         1.227847         0.466955
 H        -2.583925         2.169169         0.552162
 H        -3.148638         1.220196        -0.959542
 H        -1.899202        -2.165326         1.604851
 H        -3.808854        -2.471904         1.624686
 H        -1.739729        -3.069988        -0.732802
