19
Iteration:  3493charge 0 multiplicity 1
 C         1.344937        -0.855517        -0.599372
 C         0.093855        -0.519724         0.081746
 C        -1.078470        -0.282959         0.364925
 C        -2.456048         0.022989         0.954397
 C        -3.060810         1.396599         0.571518
 O        -3.486527        -0.987146         0.545134
 C        -3.302686        -2.338431         0.785579
 C        -2.493813        -3.077283        -0.450444
 O        -2.196715        -4.258851        -0.453069
 H         1.287142        -1.099253        -1.732270
 H         2.020197         0.058879        -0.495786
 H         1.715874        -1.812476        -0.219862
 H        -2.389828         0.050301         2.050998
 H        -2.670368         2.212107         1.227137
 H        -2.685012         1.500186        -0.500584
 H        -4.133786         1.453354         0.534615
 H        -3.077925        -2.770481         1.803510
 H        -4.297502        -2.725328         0.563795
 H        -2.243725        -2.284599        -1.290869
