19
Iteration:  2710charge 0 multiplicity 1
 C         1.523080        -0.263405        -0.614894
 C         0.190633        -0.192924        -0.059833
 C        -1.040184        -0.304528         0.143554
 C        -2.402485         0.033092         0.714456
 C        -3.184480         1.033155        -0.138623
 O        -3.327235        -1.044664         0.845858
 C        -2.854283        -2.371395         1.199162
 C        -2.812202        -3.306247        -0.110568
 O        -2.748959        -4.491158        -0.268306
 H         1.815118        -1.183228        -1.023944
 H         1.624887         0.528767        -1.386685
 H         2.194377        -0.102422         0.255080
 H        -2.102335         0.406581         1.700644
 H        -3.990551         1.579617         0.383063
 H        -2.549780         1.771169        -0.629581
 H        -3.719835         0.461661        -0.882593
 H        -1.801571        -2.283077         1.604516
 H        -3.407915        -2.772611         2.097364
 H        -2.745902        -2.584503        -1.030603
