19
Iteration:  3517
 C         1.192575        -0.907763        -0.579358
 C        -0.045765        -0.416500        -0.023183
 C        -1.036987        -0.118115         0.645768
 C        -2.462850        -0.047077         0.954817
 C        -2.936449         1.339915         0.606407
 O        -3.422770        -0.973081         0.324910
 C        -3.267667        -2.375046         0.710778
 C        -2.439435        -3.086864        -0.345781
 O        -2.248304        -4.260180        -0.463215
 H         0.993006        -1.634383        -1.457157
 H         1.610465        -0.046698        -1.106280
 H         1.831197        -1.609200        -0.008377
 H        -2.578961         0.012827         2.031477
 H        -2.226752         2.107158         0.986956
 H        -2.989971         1.302310        -0.464191
 H        -3.975974         1.541742         0.978899
 H        -2.682898        -2.670535         1.659479
 H        -4.257228        -2.862233         0.885659
 H        -1.872092        -2.271358        -1.020309
