19
Iteration:  2047charge 0 multiplicity 1
 C         1.167884        -1.062208        -0.574667
 C        -0.104169        -0.589763         0.005069
 C        -1.272602        -0.324772         0.455423
 C        -2.733650         0.124434         0.695542
 C        -3.213981         1.155005        -0.316334
 O        -3.612050        -1.037908         0.477927
 C        -2.889729        -2.171252         1.023738
 C        -2.270829        -2.935276        -0.084460
 O        -1.785418        -4.042834         0.109191
 H         1.660779        -0.282297        -1.185400
 H         1.922006        -1.225494         0.174539
 H         0.994589        -2.048570        -0.980063
 H        -2.877272         0.406479         1.752595
 H        -3.909217         1.834989         0.193565
 H        -2.500520         1.725756        -0.787392
 H        -3.860478         0.567605        -1.029002
 H        -2.314506        -1.790421         1.859741
 H        -3.571761        -3.007104         1.318118
 H        -2.216776        -2.439886        -1.228018
