19
Iteration:  2244charge 0 multiplicity 1
 C         1.118190        -1.215267        -0.845693
 C        -0.159608        -0.856089        -0.179795
 C        -1.229749        -0.222351         0.200218
 C        -2.627893         0.019853         0.753925
 C        -3.310961         1.397522         0.473256
 O        -3.416296        -0.957548        -0.022745
 C        -3.432481        -2.306294         0.507902
 C        -2.138203        -2.943937         0.108653
 O        -1.519305        -3.847130         0.733857
 H         1.865107        -1.216437        -0.005020
 H         1.090288        -2.163319        -1.360039
 H         1.437372        -0.526959        -1.619254
 H        -2.679423        -0.284147         1.800814
 H        -4.154541         1.491223         1.164291
 H        -2.641445         2.306083         0.487532
 H        -3.678597         1.402540        -0.594922
 H        -3.714994        -2.482150         1.547281
 H        -4.228670        -2.615012        -0.198319
 H        -1.775001        -2.707130        -0.887311
