19
Iteration:  2812charge 0 multiplicity 1
 C         1.311246        -0.622711        -0.734070
 C         0.038435        -0.294394        -0.066932
 C        -1.104906        -0.134983         0.330253
 C        -2.508319         0.070324         0.802235
 C        -3.059657         1.295532         0.104757
 O        -3.318217        -1.175319         0.541717
 C        -2.895425        -2.378702         1.132363
 C        -2.743833        -3.221824        -0.159229
 O        -2.408256        -4.390566        -0.181088
 H         2.260030        -0.306114        -0.210972
 H         1.495092        -1.692461        -1.060262
 H         1.351100         0.001592        -1.614307
 H        -2.455684         0.195723         1.904137
 H        -4.148489         1.452530         0.286835
 H        -2.592674         2.265314         0.418688
 H        -2.941054         1.124573        -1.022439
 H        -1.961883        -2.385446         1.738278
 H        -3.689921        -2.724263         1.903716
 H        -2.992919        -2.651029        -1.103407
