19
Iteration:  4226
 C         1.299898        -1.180019        -0.031492
 C         0.016890        -0.600205         0.191982
 C        -0.999557        -0.119460         0.611256
 C        -2.374107         0.010947         1.056432
 C        -3.044177         1.389651         0.963622
 O        -3.309316        -0.982179         0.371539
 C        -3.125700        -2.380413         0.530373
 C        -2.463423        -2.937894        -0.730359
 O        -2.626433        -4.057731        -1.160952
 H         2.127963        -0.487894        -0.125628
 H         1.634476        -1.917168         0.693676
 H         1.303791        -1.644671        -1.020159
 H        -2.546606        -0.523429         2.066131
 H        -2.521242         2.087992         1.721636
 H        -2.711899         1.965462         0.098548
 H        -4.128107         1.363830         1.170501
 H        -2.530915        -2.576798         1.514588
 H        -4.170752        -3.000833         0.602247
 H        -2.055758        -2.011982        -1.316276
