19
Iteration:  3016
 C         1.014202        -0.897228        -0.857658
 C        -0.108062        -0.609097         0.044168
 C        -1.207855        -0.425633         0.404985
 C        -2.438061         0.012761         0.980859
 C        -2.859715         1.406883         0.519032
 O        -3.627083        -0.931293         0.219288
 C        -3.291474        -2.258569         0.772136
 C        -2.411433        -3.142002        -0.255079
 O        -1.788239        -4.128225         0.027729
 H         1.279956        -1.909566        -0.882600
 H         0.766195        -0.586710        -1.891432
 H         2.081933        -0.448542        -0.750572
 H        -2.547437        -0.139589         2.048227
 H        -3.717677         1.928556         0.946410
 H        -2.008893         2.046187         0.430574
 H        -3.188721         1.215372        -0.545674
 H        -2.599892        -2.111046         1.598969
 H        -4.174686        -2.760555         1.072896
 H        -2.455463        -2.530445        -1.355228
