19
Iteration:  1318charge 0 multiplicity 1
 C         1.495633         0.331867        -0.140628
 C         0.079975         0.190750         0.003826
 C        -1.077045        -0.006794         0.260281
 C        -2.466271        -0.104551         0.360608
 C        -3.026936         1.234687        -0.254368
 O        -2.932095        -1.380855        -0.196211
 C        -2.530858        -2.391683         0.735088
 C        -3.202613        -3.750927         0.282991
 O        -3.020521        -4.895408         0.629577
 H         1.972668        -0.648278         0.041269
 H         1.850490         0.552706        -1.094351
 H         2.014800         1.015118         0.536809
 H        -2.694069        -0.143592         1.421172
 H        -2.357687         1.307477        -1.138608
 H        -4.045451         1.051276        -0.679044
 H        -3.024388         2.010975         0.486600
 H        -1.467149        -2.321182         1.092769
 H        -3.058491        -2.148022         1.693966
 H        -4.069955        -3.534942        -0.349536
