19
Iteration:   534charge 0 multiplicity 1
 C         1.654367         0.627343         0.016282
 C         0.242825         0.239648         0.012730
 C        -0.895750        -0.173632         0.073955
 C        -2.341536        -0.081224         0.153091
 C        -3.336281         0.706920        -0.821251
 O        -2.911458        -1.431540        -0.036466
 C        -2.387983        -2.418440         0.786657
 C        -3.347634        -3.633433         0.450986
 O        -3.254387        -4.686693         0.993107
 H         2.248012        -0.040056         0.683860
 H         2.112343         0.641922        -0.995009
 H         1.645963         1.763776         0.384183
 H        -2.632384         0.304984         1.136718
 H        -4.258848         0.984684        -0.194703
 H        -2.855967         1.685997        -1.101172
 H        -3.558246         0.121487        -1.695105
 H        -1.337264        -2.543465         0.792554
 H        -2.612010        -2.197710         1.911113
 H        -4.013085        -3.274393        -0.361620
