19
Iteration:  4026charge 0 multiplicity 1
 C         1.207379        -1.302929        -0.368925
 C        -0.141353        -0.905411        -0.014559
 C        -1.209624        -0.644176         0.567277
 C        -2.484352        -0.166786         1.069513
 C        -2.756282         1.408674         0.682488
 O        -3.727920        -0.922996         0.695962
 C        -3.430011        -2.371363         0.504256
 C        -2.470660        -2.575993        -0.664019
 O        -1.715283        -3.574524        -0.718769
 H         1.462102        -1.383880        -1.391522
 H         1.793033        -0.534289         0.019725
 H         1.641840        -2.235159         0.012372
 H        -2.231994        -0.201115         2.176188
 H        -2.296119         2.106398         1.326805
 H        -2.543507         1.678379        -0.340491
 H        -3.782985         1.674154         0.884492
 H        -3.184304        -2.889843         1.436980
 H        -4.373798        -2.887292         0.217727
 H        -2.814837        -1.857460        -1.384675
