19
Iteration:  3919charge 0 multiplicity 1
 C         0.956431        -1.487204        -0.500836
 C        -0.160309        -0.702517         0.107157
 C        -1.092089        -0.065612         0.549782
 C        -2.520284        -0.029643         1.098578
 C        -3.132482         1.353175         1.005639
 O        -3.293299        -0.859276         0.380269
 C        -3.119138        -2.241652         0.445662
 C        -2.333285        -2.843392        -0.680107
 O        -1.963391        -3.979066        -0.589940
 H         1.815056        -1.119104         0.072194
 H         0.725918        -2.554751        -0.322004
 H         0.936797        -1.347398        -1.586830
 H        -2.435381        -0.492037         2.063830
 H        -2.409648         2.119678         1.222261
 H        -3.311011         1.393447        -0.078584
 H        -4.114976         1.428700         1.465950
 H        -2.798372        -2.513340         1.400513
 H        -4.147063        -2.378213         0.242272
 H        -2.167198        -2.105347        -1.532995
