19
Iteration:  1491
 C         1.736307         0.731087        -0.243014
 C         0.370148         0.366697         0.165856
 C        -0.784057        -0.019116         0.117711
 C        -2.288709        -0.181249         0.312883
 C        -3.272410         0.911570        -0.058158
 O        -2.871412        -1.447129        -0.209626
 C        -2.600549        -2.509236         0.652084
 C        -3.297551        -3.784633         0.197980
 O        -3.580071        -4.808672         0.787029
 H         1.742202         1.357399        -1.184984
 H         2.386329         1.276583         0.426270
 H         2.339692        -0.182900        -0.531796
 H        -2.264804        -0.345603         1.406545
 H        -4.237657         0.507511        -0.286827
 H        -3.229919         1.729407         0.674415
 H        -2.943408         1.218297        -1.001000
 H        -1.524060        -2.755859         0.668315
 H        -2.834001        -2.284003         1.726042
 H        -3.440807        -3.844358        -0.951383
