19
Iteration:  2103charge 0 multiplicity 1
 C         1.060776        -1.313203        -0.567664
 C        -0.188716        -0.642931        -0.179653
 C        -1.250627        -0.194350         0.213096
 C        -2.647516         0.115663         0.697559
 C        -3.242486         1.346729        -0.047198
 O        -3.590648        -0.959046         0.549316
 C        -3.263318        -2.339017         0.800279
 C        -2.198294        -3.008207        -0.110626
 O        -1.419450        -3.840365         0.333060
 H         1.017900        -1.762085        -1.611792
 H         1.965829        -0.759610        -0.458437
 H         1.244223        -2.216071        -0.031306
 H        -2.636222         0.309068         1.786192
 H        -4.311778         1.229797        -0.130792
 H        -2.915478         2.231993         0.405856
 H        -2.751658         1.348552        -1.057051
 H        -2.979754        -2.494631         1.857260
 H        -4.170086        -2.973499         0.604829
 H        -2.362417        -2.879726        -1.214044
