19
Iteration:  2159charge 0 multiplicity 1
 C         0.937816        -1.422796        -0.615112
 C        -0.353699        -0.851900        -0.168879
 C        -1.316914        -0.227300         0.084683
 C        -2.675872         0.033678         0.560811
 C        -3.148753         1.485778         0.368722
 O        -3.648071        -1.034163         0.087907
 C        -3.320834        -2.282727         0.738061
 C        -2.036554        -2.919432         0.088790
 O        -1.213604        -3.712454         0.482422
 H         0.816083        -2.487777        -0.988826
 H         1.285283        -0.814509        -1.468613
 H         1.646557        -1.382713         0.181060
 H        -2.716843        -0.131086         1.662228
 H        -4.195256         1.631440         0.422343
 H        -2.743659         2.037387         1.251535
 H        -2.743261         1.872672        -0.525391
 H        -3.165252        -2.202670         1.844088
 H        -4.199366        -2.991824         0.621481
 H        -2.039637        -2.555109        -0.890232
