19
Iteration:   555charge 0 multiplicity 1
 C         1.636859         0.685546         0.041917
 C         0.253650         0.224026        -0.094522
 C        -0.946122        -0.032485        -0.151201
 C        -2.379123        -0.182747         0.176853
 C        -3.137814         0.747203        -0.792947
 O        -2.918782        -1.493811         0.056480
 C        -2.599598        -2.437992         1.016118
 C        -3.382188        -3.596343         0.477964
 O        -3.165992        -4.715143         0.863676
 H         2.039318         0.281107         0.970376
 H         2.287538         0.285987        -0.742052
 H         1.703544         1.842245        -0.068226
 H        -2.601685         0.171790         1.210959
 H        -4.242328         0.705647        -0.535069
 H        -2.704780         1.768449        -0.708255
 H        -2.921278         0.393473        -1.768960
 H        -1.567701        -2.720963         0.907494
 H        -2.694702        -2.262289         2.115616
 H        -4.150105        -3.246750        -0.262549
