19
Iteration:   443charge 0 multiplicity 1
 C         1.516063         0.247538        -0.002012
 C         0.054363         0.228827         0.124484
 C        -1.141517         0.133157         0.303037
 C        -2.607267        -0.201229         0.201996
 C        -3.206594         0.823617        -0.633572
 O        -2.862821        -1.478549        -0.482773
 C        -2.154952        -2.478161         0.330484
 C        -3.039056        -3.656907         0.461805
 O        -3.268896        -4.353211         1.433587
 H         1.886394         0.123171        -1.034276
 H         1.900510         1.218877         0.383291
 H         1.985077        -0.601896         0.628772
 H        -3.001592        -0.219979         1.214458
 H        -4.245340         0.926868        -0.491790
 H        -2.759226         1.789536        -0.383404
 H        -3.041138         0.640194        -1.727138
 H        -1.226152        -2.727920        -0.146019
 H        -1.957454        -2.182575         1.386231
 H        -3.354699        -4.036536        -0.532525
