19
Iteration:  1786
 C         1.558327         0.048103        -0.239647
 C         0.049273        -0.051640        -0.129355
 C        -1.075535        -0.020166         0.212544
 C        -2.523397         0.044743         0.423599
 C        -3.186733         1.249846        -0.384187
 O        -3.056597        -1.266929         0.249218
 C        -2.405129        -2.408728         0.961424
 C        -3.035376        -3.600976         0.252304
 O        -3.007578        -4.824648         0.345070
 H         1.925359         0.627953        -1.150187
 H         1.999538         0.503649         0.618623
 H         2.146224        -0.858831        -0.360949
 H        -2.669788         0.186696         1.536519
 H        -4.268312         1.027429        -0.649448
 H        -3.183172         2.122231         0.358332
 H        -2.675788         1.493546        -1.326038
 H        -1.269166        -2.511123         0.794130
 H        -2.656285        -2.324622         2.026325
 H        -3.762379        -3.171310        -0.589888
