19
Iteration:  3430charge 0 multiplicity 1
 C         1.355288        -0.708819        -0.311062
 C        -0.077204        -0.626382        -0.256598
 C        -1.218949        -0.543689         0.147722
 C        -2.461414        -0.058531         0.854698
 C        -2.785332         1.349878         0.473185
 O        -3.642532        -1.018073         0.629638
 C        -3.173778        -2.354135         0.950715
 C        -2.695578        -3.017309        -0.344259
 O        -2.042641        -4.016915        -0.497928
 H         1.840662         0.295452        -0.464047
 H         1.645345        -1.104893         0.643320
 H         1.619698        -1.488799        -1.064324
 H        -2.251188        -0.220028         1.945735
 H        -2.203220         2.098683         1.014544
 H        -2.487098         1.596939        -0.566773
 H        -3.841930         1.544575         0.498902
 H        -2.461597        -2.336739         1.826288
 H        -4.094538        -2.937849         1.183938
 H        -2.971939        -2.583708        -1.395095
