19
Iteration:  3116
 C         1.238060        -1.025787        -0.719250
 C        -0.053134        -0.665521        -0.192456
 C        -1.233218        -0.503839         0.137230
 C        -2.485968        -0.079730         0.855139
 C        -2.918338         1.337812         0.552673
 O        -3.681424        -0.970581         0.546596
 C        -3.454837        -2.335245         0.767344
 C        -2.386819        -2.856593        -0.299640
 O        -1.757871        -3.855364         0.014519
 H         2.031281        -0.394221        -0.398085
 H         1.407982        -2.132850        -0.614841
 H         1.161667        -1.043140        -1.834829
 H        -2.390427        -0.187343         1.963782
 H        -4.002689         1.377622         0.491233
 H        -2.594364         2.065412         1.369444
 H        -2.523517         1.616192        -0.389119
 H        -2.773731        -2.432351         1.646861
 H        -4.302596        -3.030433         0.770676
 H        -2.294770        -2.268697        -1.273100
