19
Iteration:  3516
 C         1.199960        -0.905907        -0.575255
 C        -0.042394        -0.422532        -0.019276
 C        -1.033662        -0.113907         0.639959
 C        -2.458478        -0.049266         0.949255
 C        -2.941058         1.347331         0.597929
 O        -3.430916        -0.971299         0.338589
 C        -3.278019        -2.386393         0.706302
 C        -2.447124        -3.087796        -0.333846
 O        -2.243084        -4.256512        -0.468111
 H         1.010425        -1.625320        -1.489527
 H         1.668417        -0.021229        -1.102616
 H         1.832257        -1.623006        -0.041086
 H        -2.554438         0.022532         2.032583
 H        -2.245451         2.108228         1.041435
 H        -2.988390         1.326324        -0.503396
 H        -3.964706         1.514590         0.988387
 H        -2.685009        -2.667261         1.648882
 H        -4.248873        -2.861675         0.888400
 H        -1.876970        -2.306428        -1.064132
