19
Iteration:   806charge 0 multiplicity 1
 C         1.496068        -0.224560         0.079610
 C         0.085018        -0.129487        -0.232307
 C        -1.095578         0.151405        -0.109543
 C        -2.600841         0.055278         0.285100
 C        -3.557939         0.917461        -0.551425
 O        -3.052862        -1.318971         0.127770
 C        -2.350067        -2.232724         0.997354
 C        -2.499022        -3.507474         0.258591
 O        -3.075991        -4.504812         0.702304
 H         1.616511        -0.952057         0.848531
 H         2.218269        -0.376467        -0.676213
 H         1.755541         0.782834         0.513193
 H        -2.670709         0.381194         1.327807
 H        -4.474035         0.498325        -0.222042
 H        -3.367783         1.973595        -0.294301
 H        -3.427463         0.872465        -1.661054
 H        -1.327850        -2.003207         0.896204
 H        -2.711157        -2.175433         1.985028
 H        -2.144839        -3.400447        -0.801847
