19
Iteration:  2922charge 0 multiplicity 1
 C         1.243897        -1.086159        -0.689162
 C        -0.077137        -0.492244        -0.251298
 C        -1.237371        -0.115120         0.071690
 C        -2.564712         0.091896         0.777570
 C        -3.211088         1.532895         0.607305
 O        -3.361307        -1.092890         0.371958
 C        -3.081059        -2.350604         0.934637
 C        -2.236322        -3.080886        -0.164488
 O        -2.194901        -4.274153        -0.045837
 H         1.369857        -0.944138        -1.810786
 H         1.943784        -0.420981        -0.120342
 H         1.388439        -2.083313        -0.423870
 H        -2.346531         0.078695         1.857626
 H        -4.262540         1.545034         0.915666
 H        -2.530016         2.049197         1.381206
 H        -3.176353         1.991262        -0.369093
 H        -2.474744        -2.341065         1.857850
 H        -4.083788        -2.906680         0.942919
 H        -1.808089        -2.300231        -0.976018
