19
Iteration:  1976charge 0 multiplicity 1
 C         1.381536        -0.748768        -0.239007
 C         0.026584        -0.216572        -0.163715
 C        -1.208751        -0.105728         0.054390
 C        -2.546060         0.157412         0.443390
 C        -3.370244         1.063650        -0.427038
 O        -3.363958        -0.993287         0.871518
 C        -2.913386        -2.355419         1.202836
 C        -2.549390        -3.218910        -0.062274
 O        -2.145310        -4.380939        -0.060642
 H         1.986445        -0.504712         0.623408
 H         1.352495        -1.864189        -0.200194
 H         1.939838        -0.600266        -1.175077
 H        -2.502450         0.735539         1.404352
 H        -4.308267         1.237909         0.118280
 H        -2.832994         2.076214        -0.572998
 H        -3.613145         0.605592        -1.413113
 H        -1.973564        -2.416878         1.834100
 H        -3.816260        -2.671658         1.771811
 H        -2.767477        -2.720023        -1.138114
