19
Iteration:  4736charge 0 multiplicity 1
 C         1.827508        -0.313012         0.532011
 C         0.421294        -0.251817         0.422513
 C        -0.797540        -0.367893         0.668592
 C        -2.268954        -0.303121         1.036969
 C        -2.689697         1.208854         1.137964
 O        -3.283042        -0.984013         0.188595
 C        -2.836503        -2.378907         0.157865
 C        -3.647725        -3.213594        -0.970265
 O        -3.304122        -4.302122        -1.402592
 H         2.214930         0.586094         1.074514
 H         2.097442        -1.121035         1.278813
 H         2.283097        -0.455591        -0.467817
 H        -2.334486        -0.811370         2.079096
 H        -1.877381         1.791064         1.599878
 H        -3.106067         1.552229         0.238752
 H        -3.521628         1.130069         1.873049
 H        -1.664093        -2.407441         0.110845
 H        -3.182278        -2.754944         1.112109
 H        -4.492516        -2.704389        -1.447373
