19
Iteration:  1096
 C         1.496078        -0.133588         0.017911
 C         0.115855         0.058643        -0.184333
 C        -1.041900        -0.023748         0.302404
 C        -2.572242         0.034093         0.304406
 C        -3.234231         1.166318        -0.600886
 O        -3.165936        -1.253348        -0.095359
 C        -2.702325        -2.291432         0.892956
 C        -3.163163        -3.674027         0.491996
 O        -2.402037        -4.663948         0.532427
 H         1.641095        -0.367642         1.064478
 H         1.893228        -0.845708        -0.717619
 H         2.087317         0.771309        -0.128744
 H        -2.992563         0.169727         1.345279
 H        -4.059622         1.701708        -0.036570
 H        -2.509372         1.991745        -0.844681
 H        -3.717163         0.553794        -1.425148
 H        -1.627538        -2.343781         0.748542
 H        -3.021038        -2.029690         1.945841
 H        -4.224744        -3.783672         0.279100
