19
Iteration:  3506charge 0 multiplicity 1
 C         1.267994        -0.881831        -0.619357
 C         0.016999        -0.488612         0.027457
 C        -1.029747        -0.130292         0.554050
 C        -2.441347        -0.017774         0.944534
 C        -2.983421         1.384504         0.530991
 O        -3.471078        -0.984449         0.462384
 C        -3.331032        -2.418357         0.697031
 C        -2.472483        -3.078161        -0.334778
 O        -2.211354        -4.265777        -0.483116
 H         0.978942        -1.319005        -1.614077
 H         2.033500        -0.116584        -0.739822
 H         1.834585        -1.557407         0.050624
 H        -2.467216        -0.186425         2.024400
 H        -2.433238         2.101345         1.156127
 H        -2.924699         1.731595        -0.491656
 H        -4.019125         1.377192         0.924865
 H        -2.783928        -2.458352         1.695427
 H        -4.347946        -2.854755         0.788457
 H        -2.120312        -2.351425        -1.154453
