19
Iteration:  3509
 C         1.247973        -0.887795        -0.607544
 C        -0.009072        -0.469896         0.014814
 C        -1.023378        -0.115114         0.583780
 C        -2.441938        -0.034716         0.938763
 C        -2.967974         1.385521         0.537091
 O        -3.464760        -0.975889         0.431170
 C        -3.319907        -2.426981         0.690547
 C        -2.469970        -3.070830        -0.315657
 O        -2.216764        -4.258000        -0.486591
 H         1.019726        -1.367989        -1.518227
 H         1.950989        -0.126377        -0.862003
 H         1.876064        -1.594150        -0.008128
 H        -2.463887        -0.116889         2.053873
 H        -2.414323         2.061897         1.171223
 H        -2.950511         1.607077        -0.508810
 H        -3.982800         1.383279         1.000845
 H        -2.747993        -2.499766         1.629316
 H        -4.343990        -2.870739         0.841654
 H        -2.073310        -2.497162        -1.108110
