19
Iteration:  4502charge 0 multiplicity 1
 C         1.641141        -0.577580         0.132523
 C         0.290304        -0.374298         0.493050
 C        -0.865454        -0.129415         0.674024
 C        -2.266727        -0.178565         1.008418
 C        -2.877503         1.215376         1.057729
 O        -3.204476        -1.015580         0.209832
 C        -3.088779        -2.419024         0.425564
 C        -3.007029        -3.097100        -1.006429
 O        -3.188594        -4.286121        -1.142144
 H         2.298325         0.286937        -0.064360
 H         2.132747        -1.051967         1.055556
 H         1.691874        -1.340502        -0.649383
 H        -2.132245        -0.657460         2.062714
 H        -2.627886         1.937777         1.840495
 H        -2.690827         1.829963         0.075250
 H        -4.020589         1.131968         1.005583
 H        -2.175963        -2.599498         0.975957
 H        -4.014349        -2.772344         0.888833
 H        -2.951132        -2.414740        -1.817667
