19
Iteration:  4204charge 0 multiplicity 1
 C         1.244492        -1.260781        -0.124408
 C         0.036798        -0.583787         0.381991
 C        -1.110478        -0.102354         0.401765
 C        -2.374037        -0.036158         1.109219
 C        -3.041724         1.329839         0.902223
 O        -3.271276        -0.927495         0.529216
 C        -3.143462        -2.333036         0.532907
 C        -2.464444        -2.859003        -0.821410
 O        -2.544109        -4.055406        -1.122519
 H         2.116304        -0.796587         0.320806
 H         1.364125        -2.230180         0.326987
 H         1.457442        -1.283187        -1.183686
 H        -2.249845        -0.548874         2.186871
 H        -2.942400         2.165423         1.687140
 H        -2.609850         1.779998         0.004201
 H        -4.079639         1.025447         0.840534
 H        -2.529309        -2.715940         1.422352
 H        -4.318023        -2.635399         0.488829
 H        -1.779910        -2.078798        -1.304932
