19
Iteration:   741charge 0 multiplicity 1
 C         1.599085         0.048944        -0.162303
 C         0.114293         0.144646         0.072817
 C        -1.101060         0.037480         0.119544
 C        -2.545228        -0.026818         0.297958
 C        -3.249479         0.892871        -0.755958
 O        -3.210287        -1.291697         0.227059
 C        -2.439761        -2.312628         0.901175
 C        -2.783704        -3.640405         0.217215
 O        -3.039008        -4.648991         0.780806
 H         1.785946        -0.718654        -0.874570
 H         2.055868         0.919734        -0.563051
 H         2.077297        -0.254223         0.798723
 H        -2.747413         0.413628         1.297352
 H        -4.321445         0.733821        -0.795867
 H        -3.156804         1.944307        -0.384109
 H        -2.877593         0.992444        -1.807509
 H        -1.281884        -2.130616         0.756537
 H        -2.601064        -2.254227         1.989551
 H        -2.942913        -3.550449        -0.883803
