19
Iteration:  1395charge 0 multiplicity 1
 C         1.594529         0.439151        -0.369733
 C         0.301688         0.264568         0.185851
 C        -0.926375         0.156171         0.238517
 C        -2.396150        -0.090067         0.484517
 C        -3.240507         0.799118        -0.402938
 O        -2.654837        -1.428747         0.060473
 C        -2.735355        -2.484102         1.030438
 C        -3.241424        -3.619219         0.112172
 O        -3.308982        -4.764132         0.451452
 H         2.366983         0.914952         0.305445
 H         2.049291        -0.481656        -0.667579
 H         1.536420         1.074384        -1.286555
 H        -2.734098         0.047049         1.532878
 H        -3.525308         1.828943         0.035983
 H        -2.689201         0.943052        -1.378508
 H        -4.168618         0.290554        -0.502591
 H        -1.749485        -2.904389         1.385248
 H        -3.256813        -2.183546         1.951896
 H        -3.537704        -3.261821        -0.981852
