19
Iteration:  4077
 C         1.179835        -1.195290        -0.368771
 C         0.018735        -0.772390         0.347366
 C        -1.144494        -0.565895         0.592488
 C        -2.452046        -0.145203         1.145209
 C        -2.747508         1.193767         0.632474
 O        -3.597274        -0.907779         0.649176
 C        -3.397696        -2.290405         0.474769
 C        -2.655907        -2.688223        -0.794813
 O        -1.875830        -3.621832        -0.811281
 H         0.998268        -2.275750        -0.722279
 H         1.492535        -0.527988        -1.255762
 H         2.125518        -1.331643         0.187131
 H        -2.368188        -0.231133         2.252668
 H        -2.081248         2.039784         0.947068
 H        -2.834558         1.178591        -0.465037
 H        -3.850033         1.486467         0.876771
 H        -2.935208        -2.758114         1.383092
 H        -4.412033        -2.728650         0.483940
 H        -3.013660        -1.996486        -1.529953
