19
Iteration:    83charge 0 multiplicity 1
 C         1.703192         0.239293        -0.172387
 C         0.296080         0.429794        -0.128516
 C        -0.915080         0.235854        -0.159144
 C        -2.342308        -0.159009         0.007319
 C        -3.107248         0.561717        -1.025350
 O        -2.877606        -1.539710        -0.094565
 C        -2.764044        -2.146473         1.163426
 C        -3.575259        -3.585147         1.003375
 O        -3.033791        -4.684153         0.988200
 H         2.314708         1.146330        -0.243977
 H         1.952318        -0.168047         0.836108
 H         1.974390        -0.433799        -1.049307
 H        -2.542107         0.238577         1.086631
 H        -4.158351         0.615747        -0.688897
 H        -2.747769         1.647809        -1.280608
 H        -3.027791        -0.172904        -1.906857
 H        -1.696682        -2.347758         1.416715
 H        -3.207126        -1.583263         2.050821
 H        -4.674495        -3.499003         1.146396
