19
Iteration:  2679
 C         1.570456        -0.287649        -0.579697
 C         0.158341        -0.187290        -0.120795
 C        -1.053405        -0.170431         0.116201
 C        -2.465601        -0.057998         0.699631
 C        -3.205676         1.023311        -0.159403
 O        -3.339106        -1.214261         0.792472
 C        -2.681294        -2.443448         1.183952
 C        -2.740790        -3.152483        -0.150666
 O        -2.878374        -4.367124        -0.119280
 H         1.556310        -0.852761        -1.516318
 H         2.022539         0.739912        -0.583573
 H         2.086749        -0.803230         0.208035
 H        -2.234773         0.221249         1.735805
 H        -4.124672         1.435808         0.328886
 H        -2.464736         1.794848        -0.314198
 H        -3.356324         0.523132        -1.152878
 H        -1.744513        -2.281920         1.614322
 H        -3.345704        -2.895516         1.952584
 H        -2.765516        -2.483410        -0.987241
