19
Iteration:  3868
 C         1.028589        -1.290229        -0.531948
 C        -0.132451        -0.678397         0.047262
 C        -1.191887        -0.221278         0.486133
 C        -2.578556        -0.009116         1.113724
 C        -2.978220         1.483589         1.027778
 O        -3.408030        -0.848906         0.284572
 C        -3.155811        -2.246778         0.523083
 C        -2.255891        -2.944935        -0.591202
 O        -1.999379        -4.147584        -0.588126
 H         1.493493        -1.986513         0.218080
 H         0.604014        -1.826898        -1.415966
 H         1.668671        -0.454156        -0.895763
 H        -2.610707        -0.386997         2.228779
 H        -2.738074         1.745851         2.093736
 H        -2.383497         2.154810         0.306592
 H        -4.004855         1.623444         0.738863
 H        -2.667036        -2.240164         1.581691
 H        -4.240515        -2.655532         0.528924
 H        -2.266632        -2.339062        -1.531447
