19
Iteration:  3262
 C         0.954391        -1.230666        -0.591119
 C        -0.249882        -0.770863        -0.069336
 C        -1.125071        -0.078156         0.502125
 C        -2.533045         0.118927         0.990721
 C        -3.143787         1.422665         0.507040
 O        -3.423730        -0.905711         0.374048
 C        -3.050994        -2.286883         0.680163
 C        -2.225866        -2.991624        -0.325389
 O        -1.925433        -4.156567        -0.284366
 H         0.783029        -2.004612        -1.435655
 H         1.535242        -0.450213        -1.161232
 H         1.718313        -1.598878         0.045050
 H        -2.621152        -0.053796         2.114144
 H        -2.451385         2.170201         0.165298
 H        -3.692731         1.008644        -0.286886
 H        -3.973319         1.746849         1.199292
 H        -2.341664        -2.252453         1.626345
 H        -3.985327        -2.779770         0.953662
 H        -1.729601        -2.185859        -1.072939
