19
Iteration:  4850charge 0 multiplicity 1
 C         1.776017        -0.068433         0.397277
 C         0.409708        -0.161272         0.655999
 C        -0.737206        -0.133975         1.031829
 C        -2.255152        -0.428411         1.194823
 C        -2.790013         0.964036         1.044012
 O        -2.730669        -1.141356         0.092311
 C        -2.704137        -2.615750         0.014699
 C        -3.703922        -3.067052        -0.997350
 O        -3.843433        -4.210178        -1.425900
 H         1.941670        -0.928901        -0.378994
 H         2.180043         0.878167        -0.072513
 H         2.425049        -0.250025         1.341941
 H        -2.600949        -0.947507         2.193090
 H        -2.678727         1.627669         1.947677
 H        -2.294063         1.440286         0.126924
 H        -3.855138         1.039450         0.771919
 H        -1.625063        -2.973935        -0.320684
 H        -2.938071        -3.237484         0.891256
 H        -4.189107        -2.099376        -1.388252
