19
Iteration:   157charge 0 multiplicity 1
 C         1.498015         0.538763        -0.256441
 C         0.224571        -0.049678         0.102892
 C        -0.997088        -0.071088         0.096315
 C        -2.379593        -0.097754         0.050010
 C        -3.046021         0.626789        -1.153048
 O        -2.855066        -1.429299         0.041345
 C        -2.455601        -2.288188         1.060656
 C        -3.388037        -3.450465         0.862794
 O        -3.209311        -4.635295         0.943535
 H         1.760560         0.392636        -1.340540
 H         1.444423         1.616080        -0.138225
 H         2.351065         0.154440         0.206125
 H        -2.748248         0.443638         0.912317
 H        -2.493438         1.456444        -1.559352
 H        -3.012284        -0.104855        -1.972439
 H        -4.070903         0.800535        -0.933500
 H        -1.363935        -2.466948         1.026862
 H        -2.678128        -1.937567         2.107147
 H        -4.491156        -3.057896         0.723064
