19
Iteration:  2370
 C         1.410131        -0.339134        -0.837343
 C         0.110018        -0.392417        -0.032766
 C        -1.068238        -0.456893         0.192881
 C        -2.494481        -0.223368         0.595495
 C        -2.899343         1.229026         0.271612
 O        -3.556005        -1.067757         0.156559
 C        -3.493378        -2.333828         0.707359
 C        -2.483708        -3.200935         0.026453
 O        -2.162277        -4.181024         0.612480
 H         1.123928        -0.187479        -1.833592
 H         2.092300         0.420726        -0.472363
 H         1.971250        -1.303050        -0.871948
 H        -2.407110        -0.347480         1.683671
 H        -3.702308         1.607429         0.916049
 H        -2.108333         1.878590         0.370526
 H        -3.296195         1.268873        -0.781151
 H        -3.294336        -2.284173         1.828988
 H        -4.534933        -2.756446         0.676815
 H        -2.168555        -2.916724        -0.972103
