19
Iteration:   781
 C         1.432164        -0.067319         0.008525
 C         0.073274        -0.382449        -0.041958
 C        -1.124481        -0.026968        -0.031778
 C        -2.567909         0.154658         0.215135
 C        -3.557295         1.019683        -0.652360
 O        -2.961517        -1.273189         0.246101
 C        -2.287931        -2.226207         0.904439
 C        -2.563451        -3.599567         0.175895
 O        -3.080234        -4.493624         0.761066
 H         2.190729        -0.853781         0.211885
 H         1.715766         0.568586        -0.882186
 H         1.487871         0.717011         0.799042
 H        -2.689998         0.539522         1.259172
 H        -4.483189         0.396596        -0.615154
 H        -3.608121         2.026082        -0.184604
 H        -3.225691         1.143460        -1.616384
 H        -1.262482        -2.006044         0.950729
 H        -2.732607        -2.392782         1.891350
 H        -2.435329        -3.558589        -0.928354
