19
Iteration:  2012charge 0 multiplicity 1
 C         1.221864        -0.842392        -0.371139
 C        -0.206059        -0.652007        -0.006749
 C        -1.254315        -0.134902         0.190651
 C        -2.643926         0.232268         0.609971
 C        -3.241632         1.141433        -0.401953
 O        -3.445310        -1.009203         0.713305
 C        -2.819501        -2.276257         1.095973
 C        -2.335797        -3.084376        -0.117732
 O        -2.002234        -4.275113         0.010439
 H         1.703703         0.087396        -0.300556
 H         1.603917        -1.610968         0.323158
 H         1.330472        -1.052181        -1.456989
 H        -2.589561         0.829496         1.537414
 H        -3.960023         1.844545         0.104738
 H        -2.539823         1.689956        -1.113576
 H        -3.842515         0.487644        -1.026605
 H        -2.006867        -2.182167         1.848166
 H        -3.621428        -2.903566         1.628863
 H        -2.405512        -2.453123        -1.178386
