19
Iteration:  4196charge 0 multiplicity 1
 C         1.247115        -1.275918        -0.106301
 C         0.075264        -0.591143         0.348884
 C        -1.055767        -0.181559         0.417555
 C        -2.318902        -0.020448         1.137708
 C        -3.097168         1.332019         0.904963
 O        -3.357930        -0.921408         0.562976
 C        -3.180367        -2.296579         0.465948
 C        -2.436536        -2.844977        -0.813561
 O        -2.507272        -4.032370        -1.100510
 H         2.186944        -0.896348         0.364884
 H         1.129466        -2.438372        -0.060134
 H         1.382855        -1.069875        -1.163292
 H        -2.258118        -0.336021         2.237528
 H        -2.910792         2.136011         1.599486
 H        -2.768140         1.769963        -0.027465
 H        -4.158876         1.218350         0.605799
 H        -2.608141        -2.674977         1.326792
 H        -3.949392        -2.960774         0.742699
 H        -1.856840        -2.131240        -1.399642
