19
Iteration:  1440charge 0 multiplicity 1
 C         1.630572         0.552202        -0.228386
 C         0.164245         0.328963        -0.235882
 C        -0.938602         0.188843         0.280988
 C        -2.299257        -0.084584         0.553298
 C        -3.158267         0.902114        -0.299759
 O        -2.565337        -1.447089        -0.022680
 C        -2.687262        -2.489587         0.925476
 C        -3.294294        -3.723415         0.185282
 O        -3.501437        -4.922427         0.510146
 H         1.916008         1.623343        -0.067241
 H         2.166635         0.057632         0.582931
 H         2.188645         0.291658        -1.124351
 H        -2.525131        -0.111426         1.638332
 H        -3.968811         1.490432         0.290026
 H        -2.439301         1.686028        -0.637144
 H        -3.654431         0.264516        -1.071687
 H        -1.698560        -2.717402         1.422587
 H        -3.371422        -2.347713         1.784992
 H        -3.411575        -3.655205        -0.870353
