19
Iteration:  1664
 C         1.582213         0.388029        -0.149265
 C         0.135211         0.176726        -0.106418
 C        -1.019412        -0.045441         0.271397
 C        -2.395375        -0.234001         0.471148
 C        -3.257890         0.988301        -0.029678
 O        -2.857266        -1.391419        -0.172583
 C        -2.224405        -2.616923         0.244340
 C        -3.376358        -3.539092         0.208468
 O        -3.270618        -4.512691         0.940196
 H         2.081214         0.272287         0.788932
 H         2.083891        -0.373702        -0.684904
 H         2.014949         1.261809        -0.642430
 H        -2.604604        -0.437072         1.543748
 H        -3.138813         1.853708         0.597484
 H        -2.841849         1.408359        -1.023127
 H        -4.203763         0.489231        -0.245019
 H        -1.410404        -2.724930        -0.451361
 H        -1.872794        -2.549917         1.268138
 H        -4.255706        -3.368920        -0.420675
