19
Iteration:  1799
 C         1.463363         0.021683        -0.301724
 C         0.090036        -0.137166         0.013226
 C        -1.068244         0.099335         0.156096
 C        -2.483014         0.139717         0.476831
 C        -3.139432         1.202994        -0.425966
 O        -3.075036        -1.306997         0.337741
 C        -2.435575        -2.432307         0.987434
 C        -3.047895        -3.591193         0.187220
 O        -2.956357        -4.823941         0.294668
 H         1.560803         0.407739        -1.349954
 H         1.853488         0.809621         0.318080
 H         1.910970        -0.927108        -0.120955
 H        -2.653528         0.538401         1.509425
 H        -4.269575         0.986533        -0.583313
 H        -3.067393         2.202111        -0.009088
 H        -2.520807         1.222112        -1.402134
 H        -1.334881        -2.326033         0.928932
 H        -2.677483        -2.590953         2.066025
 H        -3.709592        -3.101062        -0.662258
