19
Iteration:  2496
 C         1.444769        -0.426635        -0.650013
 C         0.045972        -0.097719        -0.203811
 C        -1.052554        -0.005957         0.203746
 C        -2.481848        -0.026018         0.558498
 C        -3.129713         1.258659         0.218621
 O        -3.285879        -1.195618         0.218986
 C        -2.909428        -2.306760         0.986274
 C        -2.519445        -3.407234         0.115108
 O        -2.780760        -4.592797         0.191488
 H         2.032102        -0.971652         0.197678
 H         1.438239        -1.170640        -1.478638
 H         2.121209         0.379868        -0.849590
 H        -2.495602        -0.005606         1.659168
 H        -4.192945         1.293138         0.586392
 H        -2.642835         2.090402         0.777700
 H        -3.050413         1.598291        -0.838448
 H        -2.101515        -1.964138         1.709551
 H        -3.685914        -2.698407         1.699085
 H        -1.991473        -3.016594        -0.857595
