19
Iteration:  3055charge 0 multiplicity 1
 C         1.087356        -0.854333        -0.867983
 C        -0.222455        -0.826319        -0.169325
 C        -1.103965        -0.390837         0.575838
 C        -2.478420         0.008881         0.935844
 C        -2.823075         1.395242         0.403052
 O        -3.509599        -0.991413         0.418822
 C        -3.412766        -2.383069         0.713069
 C        -2.516565        -3.049641        -0.311016
 O        -1.749065        -3.899594         0.057581
 H         1.915022        -1.468660        -0.329004
 H         0.977285        -1.355533        -1.863183
 H         1.315126         0.204703        -0.930560
 H        -2.591261        -0.056993         2.050242
 H        -3.909583         1.620390         0.533593
 H        -2.284868         2.143702         1.019474
 H        -2.455817         1.507745        -0.646656
 H        -2.973319        -2.646301         1.696159
 H        -4.460401        -2.862005         0.786511
 H        -2.587704        -2.827655        -1.366169
