19
Iteration:  3778
 C         1.316290        -0.796768        -0.521696
 C         0.034904        -0.693483         0.129920
 C        -1.113878        -0.468500         0.411197
 C        -2.445731        -0.240789         1.021098
 C        -2.689019         1.282322         0.717743
 O        -3.633967        -0.958277         0.531010
 C        -3.566172        -2.347510         0.450019
 C        -2.615895        -2.876180        -0.594174
 O        -2.004656        -3.916595        -0.357056
 H         1.338863        -1.421278        -1.428493
 H         1.649247         0.245203        -0.626988
 H         2.110574        -1.115948         0.057256
 H        -2.458465        -0.355536         2.107928
 H        -1.692452         1.710567         0.619872
 H        -3.185269         1.491401        -0.231023
 H        -3.298929         1.864481         1.474191
 H        -3.159690        -2.909634         1.358240
 H        -4.519534        -2.722029        -0.019882
 H        -2.460540        -2.297405        -1.547251
