19
Iteration:  3942charge 0 multiplicity 1
 C         1.003541        -1.473851        -0.443359
 C        -0.148164        -0.730725         0.079858
 C        -1.131845        -0.249236         0.608121
 C        -2.401480         0.063029         1.093041
 C        -3.081359         1.407907         0.985628
 O        -3.439099        -0.898304         0.311388
 C        -3.235097        -2.252591         0.533508
 C        -2.389927        -2.842403        -0.610198
 O        -1.832545        -3.908125        -0.721802
 H         1.914729        -0.838731        -0.455245
 H         1.076799        -2.442755         0.113898
 H         0.611535        -1.734811        -1.428432
 H        -2.441985        -0.438317         2.042190
 H        -2.328502         2.207082         0.895772
 H        -3.578789         1.330543        -0.022402
 H        -3.850876         1.532032         1.694485
 H        -2.839791        -2.302830         1.507768
 H        -4.244416        -2.639804         0.534487
 H        -2.187709        -2.020156        -1.379614
