19
Iteration:  3648
 C         1.365445        -0.885920        -0.509731
 C         0.001169        -0.531785        -0.103550
 C        -1.024352        -0.202566         0.464979
 C        -2.374127        -0.095661         0.961123
 C        -2.944739         1.278998         0.800461
 O        -3.520419        -0.912089         0.315196
 C        -3.390884        -2.324996         0.577391
 C        -2.588554        -3.032624        -0.434870
 O        -2.169739        -4.175337        -0.359559
 H         2.080876        -0.396322         0.254079
 H         1.467449        -1.956361        -0.183952
 H         1.551996        -0.823863        -1.602886
 H        -2.446213        -0.226669         2.076128
 H        -2.733202         1.958257         1.640606
 H        -2.586136         1.785750        -0.064476
 H        -4.088229         1.192330         0.746918
 H        -2.844077        -2.599714         1.454147
 H        -4.317760        -2.866740         0.510599
 H        -2.414009        -2.330075        -1.290376
