19
Iteration:  4754
 C         1.888056        -0.181548         0.553640
 C         0.351646        -0.361279         0.481153
 C        -0.867123        -0.428748         0.636114
 C        -2.241368        -0.241816         1.013895
 C        -2.692805         1.185627         1.228783
 O        -3.139518        -0.987217         0.100730
 C        -2.963089        -2.421372         0.137608
 C        -3.644462        -3.207040        -0.909534
 O        -3.319775        -4.285816        -1.419363
 H         2.045196         0.878505         0.415721
 H         2.262267        -0.681512         1.530458
 H         2.328127        -0.741890        -0.267869
 H        -2.240596        -0.730202         2.011666
 H        -1.785678         1.744473         1.600284
 H        -2.894044         1.547387         0.220423
 H        -3.524617         1.389543         1.899306
 H        -1.993911        -2.697835        -0.147639
 H        -3.031285        -2.935859         1.147748
 H        -4.662745        -2.738734        -1.156314
