19
Iteration:  2116charge 0 multiplicity 1
 C         1.054450        -1.376433        -0.571915
 C        -0.236719        -0.695231        -0.234256
 C        -1.246357        -0.342586         0.266549
 C        -2.591849         0.092143         0.684273
 C        -3.254928         1.304797         0.036063
 O        -3.641665        -0.940146         0.461055
 C        -3.192215        -2.241214         0.729399
 C        -2.189708        -3.032538        -0.149856
 O        -1.420888        -3.726836         0.421022
 H         0.995514        -1.793305        -1.611746
 H         1.797219        -0.566973        -0.696953
 H         1.225636        -1.980287         0.289245
 H        -2.475127         0.303672         1.756479
 H        -4.281632         1.052942        -0.000103
 H        -3.278758         2.166970         0.742047
 H        -3.028392         1.602878        -0.940303
 H        -2.710861        -2.330940         1.705266
 H        -4.142346        -2.733473         0.757539
 H        -2.036230        -2.742296        -1.303383
