19
Iteration:  4611
 C         1.497732        -0.696900         0.017510
 C         0.207301        -0.301629         0.680520
 C        -0.919752        -0.176640         1.164861
 C        -2.370668        -0.215184         1.182160
 C        -2.984391         1.247805         0.845794
 O        -3.036090        -1.071568         0.195004
 C        -2.509271        -2.417087         0.199375
 C        -3.035864        -3.027685        -1.066629
 O        -3.460312        -4.153297        -1.186698
 H         1.194634        -1.706331        -0.161138
 H         1.598827        -0.026569        -0.871984
 H         2.409318        -0.762461         0.601272
 H        -2.715196        -0.516808         2.145458
 H        -2.538235         1.807229         1.598294
 H        -2.691407         1.301783        -0.223784
 H        -4.033228         1.195139         1.035121
 H        -1.359809        -2.532836         0.164127
 H        -2.714752        -2.879837         1.177739
 H        -2.704605        -2.430493        -1.994039
