19
Iteration:  2539
 C         1.319657        -0.465081        -0.616915
 C        -0.070974        -0.280354        -0.221785
 C        -0.995868         0.139887         0.380454
 C        -2.447315         0.220752         0.772124
 C        -3.333673         1.254996        -0.031618
 O        -2.966078        -1.105794         0.414977
 C        -2.729117        -2.388215         0.976537
 C        -2.425146        -3.532799        -0.039302
 O        -2.965508        -4.590949         0.070340
 H         2.007420         0.063740         0.146885
 H         1.382232        -1.575075        -0.652575
 H         1.647354        -0.106317        -1.566215
 H        -2.574273         0.420631         1.840207
 H        -4.219740         1.483216         0.622754
 H        -2.859067         2.239780        -0.230220
 H        -3.590817         0.800947        -1.007796
 H        -2.084183        -2.752485         1.859672
 H        -3.718353        -2.727410         1.426717
 H        -1.747917        -3.300985        -0.915747
