19
Iteration:  4181charge 0 multiplicity 1
 C         1.324533        -1.306886        -0.183430
 C         0.075260        -0.631428         0.284297
 C        -1.044908        -0.264877         0.592170
 C        -2.453835         0.025793         1.061760
 C        -3.070748         1.359079         0.848283
 O        -3.495538        -0.922061         0.581469
 C        -3.060255        -2.324054         0.469613
 C        -2.474804        -2.800867        -0.793595
 O        -2.442806        -4.009861        -1.068975
 H         2.133785        -1.337336         0.524241
 H         1.096321        -2.326076        -0.273384
 H         1.729194        -0.914888        -1.138104
 H        -2.283770        -0.096144         2.246990
 H        -2.832002         2.009776         1.752927
 H        -2.761269         1.895454        -0.081346
 H        -4.089808         1.083423         1.014176
 H        -2.242843        -2.545542         1.240115
 H        -4.134468        -2.739942         0.482972
 H        -1.999242        -1.988731        -1.429250
