19
Iteration:  2301
 C         1.175341        -0.828778        -0.741607
 C        -0.111507        -0.370708        -0.362147
 C        -1.212025        -0.380789         0.239949
 C        -2.623849        -0.135779         0.683720
 C        -2.882047         1.403801         0.407253
 O        -3.590365        -1.055523         0.035797
 C        -3.408643        -2.354464         0.546925
 C        -2.273724        -3.174221        -0.034835
 O        -1.813753        -3.997693         0.809542
 H         1.962571        -0.058370        -0.796115
 H         1.577131        -1.573828        -0.067748
 H         1.174613        -1.201770        -1.721425
 H        -2.733196        -0.330442         1.755311
 H        -3.943759         1.633441         0.352670
 H        -2.532238         1.907362         1.367951
 H        -2.413860         1.738449        -0.465251
 H        -3.150482        -2.406331         1.618152
 H        -4.401980        -2.866046         0.498604
 H        -1.875525        -3.096185        -1.010661
