19
Iteration:  2278
 C         1.092387        -1.031149        -0.840665
 C        -0.070606        -0.405516        -0.046150
 C        -1.245913        -0.286932         0.114056
 C        -2.666629        -0.123242         0.575075
 C        -2.962743         1.340927         0.484793
 O        -3.635852        -1.005223        -0.038549
 C        -3.396270        -2.289623         0.561281
 C        -2.171350        -3.083685         0.065453
 O        -1.661748        -3.963997         0.783837
 H         2.124169        -0.634440        -0.611605
 H         1.197298        -2.058103        -0.549347
 H         1.021468        -0.889780        -1.879166
 H        -2.660184        -0.406279         1.630605
 H        -4.000547         1.569802         0.715062
 H        -2.314528         1.864265         1.290739
 H        -2.821434         1.636863        -0.541307
 H        -3.406622        -2.318777         1.661460
 H        -4.262538        -2.949092         0.271880
 H        -1.895641        -2.945291        -0.949094
