19
Iteration:  1855charge 0 multiplicity 1
 C         1.532085        -0.239154        -0.434877
 C         0.150873         0.093210         0.013962
 C        -1.013101        -0.161797         0.562804
 C        -2.527055         0.024057         0.581118
 C        -3.204807         0.867611        -0.519981
 O        -3.352851        -1.119738         0.565144
 C        -2.643078        -2.285499         0.843183
 C        -2.965276        -3.396778        -0.009689
 O        -2.640682        -4.558960         0.223915
 H         1.547346        -1.186838        -1.005513
 H         2.015792         0.472757        -1.112997
 H         2.251558        -0.307648         0.382943
 H        -2.717212         0.626747         1.505688
 H        -4.203326         1.295881        -0.181080
 H        -2.608859         1.640318        -1.005992
 H        -3.418371        -0.011881        -1.278549
 H        -1.558856        -1.998168         0.649921
 H        -2.707744        -2.610243         1.915849
 H        -3.518264        -3.094869        -0.987638
