19
Iteration:  1526
 C         1.589550         0.783173        -0.154690
 C         0.276720         0.083275        -0.012905
 C        -0.965102        -0.027390         0.083390
 C        -2.344868        -0.223449         0.398875
 C        -3.150686         1.077411        -0.002854
 O        -2.740943        -1.507061        -0.238768
 C        -2.380793        -2.637043         0.508171
 C        -3.306258        -3.787864         0.118315
 O        -3.567630        -4.625736         0.932524
 H         1.742240         0.853315        -1.289435
 H         1.401026         1.763787         0.307235
 H         2.355847         0.188761         0.388673
 H        -2.505583        -0.323824         1.507925
 H        -3.896882         0.991825        -0.776624
 H        -3.622284         1.718662         0.767237
 H        -2.352165         1.634142        -0.298229
 H        -1.340019        -2.946864         0.400178
 H        -2.683269        -2.544225         1.564124
 H        -3.650546        -3.668243        -1.005325
