19
Iteration:  4352
 C         1.553198        -0.501349         0.034118
 C         0.159326        -0.474392         0.374149
 C        -0.987204        -0.450597         0.786623
 C        -2.319016        -0.278633         1.103272
 C        -2.644633         1.151566         0.830951
 O        -3.237592        -1.009723         0.235174
 C        -3.399865        -2.425057         0.388151
 C        -2.949419        -2.899621        -0.886637
 O        -2.829739        -4.094252        -0.993615
 H         1.889363        -1.453721        -0.438604
 H         1.902571         0.270733        -0.644227
 H         2.198671        -0.501068         0.960515
 H        -2.739990        -0.433344         2.151567
 H        -2.386086         1.708252         1.727985
 H        -2.059612         1.569138        -0.008868
 H        -3.635337         1.466971         0.697808
 H        -2.647861        -2.780986         1.271969
 H        -4.491014        -2.707443         0.456662
 H        -2.763223        -2.143893        -1.723686
