19
Iteration:   771charge 0 multiplicity 1
 C         1.467253         0.013786        -0.035462
 C         0.010526        -0.352159         0.069804
 C        -1.148423        -0.017158        -0.103026
 C        -2.523067         0.128399         0.315675
 C        -3.442172         0.974320        -0.683610
 O        -3.056098        -1.213652         0.195565
 C        -2.280372        -2.291830         0.917563
 C        -2.595578        -3.563393         0.177225
 O        -3.082956        -4.550364         0.778447
 H         2.135318        -0.853739        -0.152095
 H         1.592950         0.662343        -0.910078
 H         1.765288         0.494528         0.935727
 H        -2.541289         0.609703         1.298608
 H        -4.454583         0.513676        -0.732619
 H        -3.736388         1.925795        -0.191576
 H        -3.097548         1.025528        -1.650975
 H        -1.257565        -2.214651         0.831848
 H        -2.518585        -2.304295         1.956740
 H        -2.384650        -3.563132        -0.930304
