19
Iteration:  4136charge 0 multiplicity 1
 C         1.133349        -1.185863        -0.222335
 C        -0.209689        -0.860106         0.252782
 C        -1.204649        -0.361571         0.667053
 C        -2.496293        -0.072137         1.165033
 C        -2.793719         1.349879         0.760546
 O        -3.380819        -0.913128         0.474781
 C        -3.120016        -2.255617         0.656996
 C        -2.569925        -2.801284        -0.821365
 O        -2.137023        -3.894555        -1.077937
 H         1.528699        -1.838555         0.523134
 H         1.152710        -1.686069        -1.116812
 H         1.661054        -0.229470        -0.233260
 H        -2.389249         0.036599         2.286057
 H        -1.930826         1.998269         0.918312
 H        -2.939727         1.219055        -0.322034
 H        -3.591468         1.704626         1.372591
 H        -2.244309        -2.349528         1.328109
 H        -4.097035        -2.788022         0.914985
 H        -2.581163        -2.097917        -1.636283
