19
Iteration:  2850
 C         1.259377        -0.791833        -0.726539
 C        -0.048101        -0.404761        -0.158637
 C        -1.039107        -0.070913         0.450600
 C        -2.390289         0.173160         0.857711
 C        -3.254716         1.360550         0.257180
 O        -3.272849        -1.008527         0.548615
 C        -2.928986        -2.318793         0.856294
 C        -2.650372        -3.319500        -0.354888
 O        -2.294601        -4.438677        -0.006229
 H         1.885983         0.109521        -0.604167
 H         1.638146        -1.656880        -0.169778
 H         1.110161        -0.971926        -1.870191
 H        -2.445852         0.373569         1.956179
 H        -4.127173         1.382454         0.921613
 H        -2.681494         2.312281         0.221535
 H        -3.658826         1.102158        -0.699155
 H        -2.147979        -2.363836         1.623946
 H        -3.775139        -2.895011         1.146592
 H        -2.929181        -2.978959        -1.458651
