19
Iteration:  1241
 C         1.591469         0.086884         0.151948
 C         0.198598         0.004617         0.082384
 C        -1.002463        -0.025744         0.007011
 C        -2.496503         0.030811         0.266484
 C        -3.427656         1.180610        -0.455937
 O        -3.203409        -1.286328         0.248173
 C        -2.350172        -2.408433         0.293028
 C        -3.129401        -3.652665         0.300991
 O        -2.838741        -4.740221         0.738638
 H         2.146024         0.011859        -0.771386
 H         1.814356         1.019765         0.557945
 H         2.018422        -0.663330         0.825095
 H        -2.513311         0.298702         1.329611
 H        -4.242513         0.770097        -1.053302
 H        -3.704426         1.724084         0.437818
 H        -2.813470         1.832646        -1.114012
 H        -1.728902        -2.462230        -0.619412
 H        -1.714917        -2.340244         1.191973
 H        -4.053727        -3.590499        -0.386157
