19
Iteration:  3431
 C         1.358415        -0.698898        -0.308389
 C        -0.074158        -0.634702        -0.265301
 C        -1.215174        -0.542134         0.145050
 C        -2.463848        -0.059451         0.867728
 C        -2.789241         1.353050         0.471151
 O        -3.647209        -1.028898         0.630329
 C        -3.166902        -2.344819         0.937276
 C        -2.697408        -3.010386        -0.342266
 O        -2.048539        -4.016371        -0.492458
 H         1.866350         0.258238        -0.495770
 H         1.664621        -1.107217         0.620166
 H         1.640727        -1.518422        -1.033675
 H        -2.251575        -0.191254         1.970294
 H        -2.214786         2.087631         1.032272
 H        -2.463635         1.579570        -0.539391
 H        -3.871797         1.537904         0.493435
 H        -2.476742        -2.342550         1.794736
 H        -4.088174        -2.936682         1.164290
 H        -2.946015        -2.598328        -1.372616
