19
Iteration:  4251charge 0 multiplicity 1
 C         1.430004        -1.063091        -0.069883
 C         0.045578        -0.600837         0.215155
 C        -1.059524        -0.339552         0.708743
 C        -2.510099        -0.050195         1.093927
 C        -3.006753         1.349756         0.994255
 O        -3.343870        -0.867436         0.264275
 C        -3.051753        -2.265274         0.465964
 C        -2.514466        -2.974900        -0.722506
 O        -2.688066        -4.102672        -1.138521
 H         2.126333        -0.451088        -0.654114
 H         1.977908        -1.335457         0.882986
 H         1.342554        -1.958606        -0.645987
 H        -2.788170        -0.435875         2.172180
 H        -2.247893         1.976984         1.381632
 H        -3.053763         1.751917        -0.009660
 H        -3.918352         1.499864         1.608781
 H        -2.147838        -2.282789         1.166420
 H        -3.853567        -2.871148         0.942302
 H        -1.785426        -2.237495        -1.210886
