19
Iteration:  3900charge 0 multiplicity 1
 C         0.951411        -1.440394        -0.516488
 C        -0.109426        -0.685655         0.073292
 C        -1.063608        -0.120916         0.584171
 C        -2.455247         0.087630         1.125727
 C        -3.131304         1.457665         1.014149
 O        -3.436317        -0.853130         0.357047
 C        -3.140185        -2.298809         0.385685
 C        -2.253524        -2.906171        -0.705092
 O        -1.998513        -4.078493        -0.548500
 H         1.803314        -1.479273         0.212753
 H         0.569514        -2.449139        -0.824132
 H         1.222598        -1.096183        -1.455601
 H        -2.381610        -0.072465         2.246692
 H        -2.754392         2.142988         1.827593
 H        -3.112964         2.068720         0.047849
 H        -4.105956         1.217100         1.406761
 H        -2.460746        -2.557311         1.273297
 H        -4.134553        -2.889469         0.311197
 H        -2.097958        -2.285735        -1.621233
