19
Iteration:  3062charge 0 multiplicity 1
 C         1.047517        -0.885975        -0.833628
 C        -0.175366        -0.796381        -0.193274
 C        -1.076011        -0.363419         0.498383
 C        -2.493139        -0.019802         1.003420
 C        -2.765884         1.380338         0.412148
 O        -3.531964        -0.982906         0.434653
 C        -3.466598        -2.409714         0.708111
 C        -2.554360        -3.056354        -0.281372
 O        -1.721579        -3.887568         0.043696
 H         1.917958        -1.246642        -0.257180
 H         1.133303        -1.406980        -1.853243
 H         1.363993         0.124546        -1.108652
 H        -2.739789         0.040015         2.074125
 H        -3.846251         1.373482         0.322627
 H        -2.451536         2.300244         0.983538
 H        -2.513163         1.466358        -0.595279
 H        -3.009894        -2.540470         1.700436
 H        -4.367102        -2.948779         0.668462
 H        -2.458069        -2.617804        -1.424136
