19
Iteration:   892charge 0 multiplicity 1
 C         1.393394        -0.192577        -0.234677
 C         0.018191        -0.184778         0.045000
 C        -1.101537         0.187824         0.347723
 C        -2.558106         0.129412         0.345317
 C        -3.383475         0.941960        -0.634040
 O        -2.895091        -1.219577        -0.088819
 C        -2.723604        -2.188586         0.924932
 C        -2.569325        -3.572519         0.292800
 O        -2.848654        -4.646789         0.741499
 H         1.912871         0.652477         0.235755
 H         1.726623        -1.098998         0.261160
 H         1.641528        -0.327117        -1.359560
 H        -3.065299         0.232821         1.337834
 H        -4.175276         1.449759        -0.158383
 H        -2.869626         1.678540        -1.252422
 H        -3.878955         0.179542        -1.236632
 H        -1.716017        -2.055697         1.534925
 H        -3.548705        -2.040365         1.710478
 H        -1.882152        -3.476636        -0.627902
