19
Iteration:  3097charge 0 multiplicity 1
 C         1.183406        -0.997873        -0.813858
 C        -0.032790        -0.491764        -0.178339
 C        -1.175813        -0.647344         0.307350
 C        -2.468074        -0.157424         0.859140
 C        -2.889363         1.334165         0.462603
 O        -3.652347        -0.934220         0.552759
 C        -3.447053        -2.319957         0.738784
 C        -2.451808        -2.913041        -0.248777
 O        -1.713999        -3.867239         0.006979
 H         2.026824        -0.788637        -0.076026
 H         0.968763        -2.133883        -0.933617
 H         1.260712        -0.529841        -1.759096
 H        -2.341500        -0.027729         1.944631
 H        -3.966704         1.229878         0.317730
 H        -2.781989         2.018405         1.317151
 H        -2.356590         1.700943        -0.384801
 H        -3.255049        -2.575583         1.784847
 H        -4.403789        -2.652059         0.403588
 H        -2.741844        -2.293391        -1.168711
