19
Iteration:  2343
 C         1.359812        -0.409035        -0.786501
 C        -0.062233        -0.779244        -0.264864
 C        -1.111677        -0.413758         0.192986
 C        -2.445992        -0.060366         0.733017
 C        -3.008476         1.296923         0.305800
 O        -3.433980        -0.958942         0.137003
 C        -3.608008        -2.298139         0.636211
 C        -2.450324        -3.234217         0.105896
 O        -1.908592        -4.203369         0.643729
 H         1.091668         0.493165        -1.484203
 H         1.917379        -0.078670         0.114539
 H         1.983178        -1.155951        -1.249883
 H        -2.395444        -0.231681         1.834526
 H        -4.106901         1.323433         0.437155
 H        -2.506702         2.300759         0.705708
 H        -2.880781         1.302635        -0.768723
 H        -3.842520        -2.308140         1.684046
 H        -4.553826        -2.565376         0.114301
 H        -2.133573        -2.924159        -1.014548
