19
Iteration:  1904charge 0 multiplicity 1
 C         1.387409        -0.341734        -0.272734
 C        -0.059212        -0.493800         0.005711
 C        -1.187594        -0.069544         0.167892
 C        -2.519804         0.189586         0.481823
 C        -3.267211         1.145238        -0.616813
 O        -3.233152        -1.091863         0.807106
 C        -2.532560        -2.307544         1.153859
 C        -2.806606        -3.411129         0.012076
 O        -2.510134        -4.569358        -0.022993
 H         2.100327        -1.124291         0.109851
 H         1.646451        -0.283975        -1.370510
 H         1.734240         0.679497         0.111888
 H        -2.654074         0.923027         1.279868
 H        -4.312282         1.404019        -0.409434
 H        -2.657479         2.058591        -0.373189
 H        -3.095027         0.904017        -1.612739
 H        -1.506848        -2.094228         1.335934
 H        -3.002773        -2.715398         2.063247
 H        -3.386556        -2.931669        -0.926085
