19
Iteration:  2825
 C         1.319036        -0.654565        -0.779546
 C         0.015892        -0.372662        -0.047022
 C        -1.071563        -0.017262         0.309428
 C        -2.446401         0.090298         0.939579
 C        -3.138856         1.233136         0.147068
 O        -3.337651        -0.995223         0.518920
 C        -2.972148        -2.292761         1.053739
 C        -2.727637        -3.347615        -0.150789
 O        -2.332548        -4.484918        -0.205443
 H         2.158506        -0.144102        -0.164012
 H         1.426468        -1.766035        -0.689610
 H         1.290780        -0.367112        -1.848150
 H        -2.456521         0.226274         2.049575
 H        -4.202846         1.341964         0.429544
 H        -2.458411         2.190161         0.249093
 H        -3.072948         0.948480        -0.922768
 H        -1.991385        -2.165927         1.487134
 H        -3.725586        -2.749184         1.764698
 H        -2.832081        -2.705325        -1.118461
