19
Iteration:  2420
 C         1.428016        -0.256418        -0.607029
 C        -0.045498        -0.343768        -0.464701
 C        -1.087699        -0.275694         0.136256
 C        -2.468650        -0.003004         0.736176
 C        -2.870294         1.398877         0.211570
 O        -3.321013        -1.102777         0.235083
 C        -3.420959        -2.433292         0.834093
 C        -2.595386        -3.409038         0.037157
 O        -2.323451        -4.515619         0.466522
 H         1.964016        -1.128988        -1.164077
 H         1.700512         0.745923        -1.010706
 H         1.875783        -0.322292         0.371926
 H        -2.420183         0.080564         1.859095
 H        -3.706768         1.903142         0.759024
 H        -2.003962         2.096941         0.436337
 H        -3.095008         1.399907        -0.851256
 H        -3.360939        -2.412932         1.908983
 H        -4.474255        -2.771496         0.710877
 H        -2.289443        -3.052858        -0.926260
