19
Iteration:   260charge 0 multiplicity 1
 C         1.632426         0.447191        -0.018569
 C         0.215393         0.045490         0.032606
 C        -1.025767        -0.033415        -0.031858
 C        -2.496795        -0.156100         0.051685
 C        -3.128027         0.841905        -0.872471
 O        -3.058866        -1.414994        -0.193782
 C        -2.320252        -2.451677         0.552104
 C        -3.336504        -3.507754         0.811403
 O        -3.120517        -4.602015         1.314345
 H         2.104207        -0.053766         0.793064
 H         2.186477         0.091892        -0.903186
 H         1.730747         1.569155         0.159300
 H        -2.798760         0.206210         1.065340
 H        -4.160152         0.355789        -0.942523
 H        -3.123321         1.896577        -0.509650
 H        -2.618424         0.760145        -1.912114
 H        -1.450244        -2.892070         0.026536
 H        -2.045294        -2.001411         1.517411
 H        -4.305450        -3.120387         0.422874
