19
Iteration:    49charge 0 multiplicity 1
 C         1.679705         0.254569        -0.182700
 C         0.258660         0.013695        -0.109472
 C        -0.980687         0.025996        -0.081889
 C        -2.451325        -0.047214        -0.066168
 C        -3.320042         0.762336        -1.115047
 O        -2.634266        -1.463920        -0.024007
 C        -2.668605        -2.141916         1.224934
 C        -3.528078        -3.566120         0.827485
 O        -3.005135        -4.621835         1.142028
 H         1.962879         1.138184         0.463669
 H         2.186966        -0.626014         0.214041
 H         2.134701         0.353914        -1.154065
 H        -2.914767         0.308438         0.926876
 H        -4.136814         0.079074        -1.513027
 H        -3.688952         1.769315        -0.780649
 H        -2.695412         0.977296        -2.002221
 H        -1.619653        -2.351932         1.458475
 H        -3.136233        -1.580148         2.073941
 H        -4.580307        -3.543501         0.401114
