19
Iteration:  3164
 C         1.142686        -1.149271        -0.607444
 C        -0.289727        -0.757226        -0.302509
 C        -1.294908        -0.372457         0.237401
 C        -2.520818         0.036124         0.878536
 C        -3.061101         1.555541         0.680018
 O        -3.437786        -0.881450         0.384853
 C        -3.243009        -2.288699         0.783861
 C        -2.455580        -3.110203        -0.328682
 O        -1.665421        -4.016515        -0.095163
 H         1.604732        -0.161930        -0.986375
 H         1.707896        -1.548042         0.277493
 H         1.302178        -1.981032        -1.259741
 H        -2.432740        -0.176455         1.951639
 H        -3.589258         1.863763         1.587927
 H        -2.231446         2.207874         0.627387
 H        -3.691563         1.622267        -0.257294
 H        -2.543494        -2.449965         1.607999
 H        -4.232761        -2.688878         0.918401
 H        -2.407054        -2.483212        -1.288539
