19
Iteration:   598charge 0 multiplicity 1
 C         1.735989         0.701564        -0.077216
 C         0.304214         0.343963        -0.194803
 C        -0.820630        -0.131956         0.070532
 C        -2.367889        -0.037118         0.171899
 C        -3.110067         0.950785        -0.850024
 O        -2.954961        -1.483069         0.011526
 C        -2.840936        -2.431358         1.051315
 C        -3.577884        -3.809748         0.695591
 O        -2.971699        -4.897506         0.720134
 H         1.874944         1.222879         0.836408
 H         2.423343        -0.108664         0.005902
 H         2.086561         1.246802        -1.018101
 H        -2.489075         0.298747         1.243613
 H        -4.126760         0.494953        -1.041767
 H        -3.146860         1.905324        -0.307004
 H        -2.507026         1.236984        -1.649247
 H        -1.862878        -2.677240         1.545957
 H        -3.483700        -2.029746         1.846377
 H        -4.666456        -3.779195         0.348093
