19
Iteration:  2497
 C         1.434555        -0.423781        -0.643489
 C         0.042897        -0.104199        -0.213034
 C        -1.058655         0.006002         0.209463
 C        -2.476383        -0.024137         0.563650
 C        -3.124748         1.263304         0.216502
 O        -3.276400        -1.191122         0.225154
 C        -2.904114        -2.308459         0.986051
 C        -2.521115        -3.419820         0.115544
 O        -2.782878        -4.595922         0.184947
 H         2.007835        -0.970870         0.204874
 H         1.432639        -1.190728        -1.442660
 H         2.109497         0.382225        -0.876117
 H        -2.485656        -0.003535         1.670504
 H        -4.192429         1.278259         0.579952
 H        -2.650660         2.076854         0.742938
 H        -3.058793         1.575494        -0.873394
 H        -2.112345        -1.951368         1.673006
 H        -3.687467        -2.673096         1.677642
 H        -1.985254        -3.017144        -0.820147
