19
Iteration:  3066
 C         1.058642        -0.898790        -0.843320
 C        -0.146340        -0.768415        -0.195608
 C        -1.114853        -0.346808         0.467656
 C        -2.479553        -0.061147         1.030814
 C        -2.757615         1.362485         0.418169
 O        -3.556471        -0.963521         0.443170
 C        -3.475517        -2.400972         0.713646
 C        -2.548699        -3.061335        -0.278529
 O        -1.701510        -3.887121         0.033755
 H         1.916805        -1.175912        -0.064678
 H         1.119804        -1.481827        -1.794832
 H         1.423958         0.044764        -1.266338
 H        -2.673581         0.045334         2.134728
 H        -3.860164         1.270583         0.215873
 H        -2.530213         2.262442         0.979641
 H        -2.407185         1.416206        -0.664520
 H        -3.046985        -2.516108         1.715242
 H        -4.523802        -2.877062         0.546101
 H        -2.555948        -2.477160        -1.256479
