19
Iteration:   951
 C         1.362972        -0.020966        -0.356135
 C         0.083730         0.058226         0.173253
 C        -1.120252        -0.141469         0.327514
 C        -2.605676         0.057022         0.315961
 C        -2.852759         1.227050        -0.637320
 O        -3.359986        -1.179251        -0.033079
 C        -2.992161        -2.223537         0.840301
 C        -2.671626        -3.776795         0.287200
 O        -2.570355        -4.825004         0.861128
 H         1.477052         0.519460        -1.332941
 H         2.110851         0.408404         0.372697
 H         1.625387        -1.055476        -0.565439
 H        -2.953183         0.366791         1.339824
 H        -3.904687         1.744881        -0.478224
 H        -2.112855         2.087892        -0.561590
 H        -2.810087         0.737198        -1.647880
 H        -1.932353        -2.139528         1.264831
 H        -3.725697        -2.317361         1.654803
 H        -2.201023        -3.669767        -0.760582
