19
Iteration:  2620
 C         1.479482        -0.447536        -0.523928
 C         0.015799        -0.355014        -0.216752
 C        -1.124037         0.043044         0.231252
 C        -2.543036         0.113293         0.779708
 C        -3.255436         1.161800        -0.135077
 O        -3.252852        -1.197369         0.726052
 C        -2.521645        -2.374244         1.062762
 C        -2.453864        -3.349333        -0.151121
 O        -3.026880        -4.428494        -0.047590
 H         1.667445         0.262888        -1.279449
 H         2.213643        -0.132046         0.164219
 H         1.771680        -1.390164        -1.040026
 H        -2.551288         0.364510         1.833995
 H        -4.294262         1.132289        -0.323435
 H        -2.978053         2.193307         0.161349
 H        -2.807801         1.040016        -1.099384
 H        -1.473060        -2.268968         1.377955
 H        -3.123695        -2.870024         1.806165
 H        -1.988619        -3.037946        -1.086264
