19
Iteration:  1180
 C         1.520689        -0.300130         0.050377
 C         0.065067         0.172369         0.072178
 C        -1.098613         0.355021         0.348698
 C        -2.589408         0.143269         0.448752
 C        -3.429702         0.865967        -0.641754
 O        -3.020399        -1.284565         0.141812
 C        -2.162220        -2.304363         0.274046
 C        -3.173568        -3.587929         0.414656
 O        -2.775765        -4.692191         0.625060
 H         2.192867         0.607736        -0.100058
 H         1.715908        -0.747941         1.115376
 H         1.699442        -1.091653        -0.693992
 H        -3.050642         0.457208         1.386717
 H        -4.523648         0.848720        -0.347752
 H        -3.251628         1.975659        -0.737626
 H        -3.257660         0.494174        -1.602391
 H        -1.291140        -2.607935        -0.422308
 H        -1.712017        -2.285637         1.309391
 H        -4.220148        -3.366613         0.156446
