19
Iteration:  4220charge 0 multiplicity 1
 C         1.281970        -1.182891        -0.029013
 C         0.019482        -0.611995         0.239158
 C        -1.036811        -0.087604         0.534562
 C        -2.373357        -0.004739         1.074851
 C        -3.025412         1.337481         0.960666
 O        -3.281615        -0.966228         0.405849
 C        -3.115820        -2.374350         0.504759
 C        -2.475190        -2.911517        -0.695247
 O        -2.606462        -4.052554        -1.168532
 H         2.137710        -0.464439        -0.041815
 H         1.439721        -2.144041         0.561335
 H         1.166230        -1.558715        -1.079958
 H        -2.329395        -0.158195         2.170925
 H        -2.608616         1.906147         1.746456
 H        -2.756054         1.920927         0.060065
 H        -4.125887         1.395383         0.926002
 H        -2.762071        -2.738521         1.445113
 H        -3.991616        -2.894118         0.559078
 H        -2.109160        -2.128155        -1.341446
