19
Iteration:  1965
 C         1.432037        -0.736905        -0.220569
 C         0.069809        -0.153868        -0.182952
 C        -1.121511        -0.131977         0.007200
 C        -2.492364         0.128649         0.497406
 C        -3.419798         0.935517        -0.409976
 O        -3.386716        -1.052068         0.828991
 C        -2.872805        -2.330855         1.134570
 C        -2.650546        -3.175414        -0.094947
 O        -2.228009        -4.286781         0.029569
 H         1.911980        -0.553036         0.719775
 H         1.221771        -1.811493        -0.377452
 H         2.008057        -0.212491        -0.979606
 H        -2.243242         0.580001         1.474147
 H        -4.435334         0.978073         0.012716
 H        -3.022481         2.013923        -0.330400
 H        -3.413483         0.646296        -1.494722
 H        -1.929325        -2.261029         1.762395
 H        -3.527950        -3.006509         1.738647
 H        -2.915377        -2.574918        -1.102311
