19
Iteration:  3804charge 0 multiplicity 1
 C         1.248827        -0.913351        -0.556551
 C         0.004128        -0.687518         0.100322
 C        -1.143462        -0.578620         0.472591
 C        -2.408458        -0.132161         1.058968
 C        -2.877675         1.354748         0.796649
 O        -3.537346        -0.851904         0.490750
 C        -3.502629        -2.277134         0.465493
 C        -2.508289        -2.922611        -0.572687
 O        -1.985341        -4.004226        -0.443813
 H         1.381195        -1.942261        -0.972300
 H         1.506313        -0.079881        -1.194066
 H         2.251760        -0.751753         0.000293
 H        -2.464475        -0.269352         2.132910
 H        -2.188726         2.109207         1.238963
 H        -2.774635         1.646151        -0.302170
 H        -3.880181         1.497072         1.161629
 H        -3.181990        -2.780744         1.399316
 H        -4.437450        -2.657151         0.079129
 H        -2.440693        -2.391371        -1.559184
