19
Iteration:  3068
 C         1.086848        -0.910065        -0.854391
 C        -0.148222        -0.745723        -0.185394
 C        -1.137375        -0.345114         0.451730
 C        -2.468628        -0.082300         1.039535
 C        -2.763105         1.347124         0.416142
 O        -3.569626        -0.951377         0.448346
 C        -3.480390        -2.391315         0.716791
 C        -2.537229        -3.060200        -0.279004
 O        -1.692808        -3.886970         0.026336
 H         1.833198        -1.136171        -0.035468
 H         1.091137        -1.546516        -1.696540
 H         1.455983         0.048434        -1.347888
 H        -2.590463         0.012033         2.139720
 H        -3.867904         1.250253         0.184921
 H        -2.564521         2.217155         0.989080
 H        -2.314438         1.390524        -0.679790
 H        -3.088259        -2.533433         1.737129
 H        -4.584281        -2.791805         0.505206
 H        -2.625752        -2.444081        -1.127620
