19
Iteration:   759
 C         1.479059         0.023251        -0.063249
 C         0.044438        -0.179864         0.114597
 C        -1.115128         0.043055        -0.107581
 C        -2.540194         0.088176         0.287387
 C        -3.323214         0.904629        -0.647259
 O        -3.144802        -1.242320         0.216957
 C        -2.335464        -2.281001         0.880588
 C        -2.709084        -3.579607         0.251525
 O        -3.055219        -4.594485         0.755281
 H         1.941639        -0.859030        -0.573744
 H         1.574582         0.921493        -0.758171
 H         2.083414         0.321145         0.805125
 H        -2.605910         0.299518         1.359692
 H        -4.260154         0.325501        -0.836333
 H        -3.385028         1.975119        -0.417870
 H        -2.761215         0.926270        -1.520926
 H        -1.364972        -2.087723         0.613323
 H        -2.497836        -2.308788         1.957566
 H        -2.399747        -3.571802        -0.834460
