19
Iteration:  2041
 C         1.202777        -1.018305        -0.545357
 C        -0.159720        -0.619005         0.019453
 C        -1.233560        -0.334820         0.452164
 C        -2.745162         0.113687         0.665230
 C        -3.236837         1.097622        -0.301324
 O        -3.592081        -1.033038         0.499017
 C        -2.850563        -2.154980         1.007009
 C        -2.234740        -2.934895        -0.155160
 O        -1.868525        -4.034797         0.128357
 H         1.631601        -0.166186        -1.130300
 H         1.835464        -1.297613         0.345002
 H         1.018538        -1.900172        -1.216500
 H        -2.803398         0.536549         1.692399
 H        -3.866280         1.853244         0.184369
 H        -2.466960         1.718690        -0.894546
 H        -3.858453         0.518950        -0.964772
 H        -2.090525        -1.749904         1.716856
 H        -3.453370        -2.909257         1.548097
 H        -2.323855        -2.509679        -1.088583
