19
Iteration:  4372charge 0 multiplicity 1
 C         1.690915        -0.437223         0.057644
 C         0.238481        -0.488011         0.431621
 C        -0.939254        -0.565364         0.718254
 C        -2.376337        -0.282951         1.062874
 C        -2.637056         1.246552         0.929387
 O        -3.411462        -0.903785         0.256948
 C        -3.368901        -2.328583         0.392545
 C        -3.022221        -3.030763        -0.911335
 O        -2.816322        -4.226675        -1.072384
 H         2.243767        -1.375713         0.011476
 H         1.816109         0.066881        -0.910331
 H         2.251136         0.066901         0.811974
 H        -2.500371        -0.623786         2.076369
 H        -2.404091         1.945750         1.694947
 H        -2.059463         1.614002         0.045404
 H        -3.702761         1.456085         0.790592
 H        -2.624344        -2.831906         1.085616
 H        -4.409210        -2.436710         0.884803
 H        -2.860717        -2.368032        -1.735148
