19
Iteration:  2028charge 0 multiplicity 1
 C         1.144380        -0.922041        -0.441699
 C        -0.201199        -0.667535         0.003240
 C        -1.246790        -0.248190         0.366929
 C        -2.611965         0.079417         0.642009
 C        -3.290498         1.107121        -0.375624
 O        -3.504119        -1.037665         0.612793
 C        -2.817539        -2.155758         0.990312
 C        -2.295207        -2.957148        -0.147220
 O        -1.955189        -4.108646         0.099838
 H         1.701112         0.098191        -0.649276
 H         1.848580        -1.426478         0.221459
 H         1.227059        -1.543811        -1.324840
 H        -2.697315         0.424288         1.683534
 H        -3.843644         1.854250         0.134954
 H        -2.457534         1.509161        -0.902661
 H        -3.940925         0.615900        -1.126075
 H        -1.864008        -2.002548         1.508677
 H        -3.467759        -2.660074         1.647149
 H        -2.176355        -2.560064        -1.114133
