19
Iteration:   432charge 0 multiplicity 1
 C         1.483341         0.238469         0.009410
 C         0.063536         0.091220         0.173613
 C        -1.134351         0.105097         0.262541
 C        -2.549771        -0.144878         0.160939
 C        -3.326716         0.886800        -0.678382
 O        -2.797387        -1.479737        -0.398754
 C        -2.092298        -2.478210         0.323105
 C        -3.076287        -3.762449         0.355537
 O        -3.236418        -4.265290         1.478488
 H         1.715704         0.422907        -1.050568
 H         1.788409         1.137514         0.579527
 H         2.088069        -0.635469         0.463144
 H        -3.070035        -0.173175         1.107905
 H        -4.345814         0.637535        -0.593673
 H        -3.143626         1.859169        -0.186729
 H        -2.944944         0.951794        -1.720232
 H        -1.111474        -2.614429        -0.102274
 H        -1.946126        -2.199953         1.395068
 H        -3.759437        -3.916866        -0.502510
