19
Iteration:   428charge 0 multiplicity 1
 C         1.482610         0.241734         0.030286
 C         0.063235         0.042376         0.191814
 C        -1.136582         0.090693         0.245954
 C        -2.537381        -0.146446         0.139478
 C        -3.364311         0.930662        -0.690310
 O        -2.768907        -1.473290        -0.360972
 C        -2.091522        -2.507289         0.320783
 C        -3.065987        -3.765712         0.350400
 O        -3.227412        -4.237115         1.467678
 H         1.752023         0.470954        -1.038258
 H         1.803202         1.134641         0.579510
 H         2.054918        -0.613958         0.255729
 H        -3.020157        -0.105531         1.192144
 H        -4.439888         0.566686        -0.746896
 H        -3.364462         1.894614        -0.129319
 H        -2.957633         0.956117        -1.703590
 H        -1.076820        -2.705526        -0.111495
 H        -1.988491        -2.122259         1.317247
 H        -3.879744        -3.960113        -0.434800
