19
Iteration:  4153
 C         1.204076        -1.234030        -0.178701
 C        -0.097558        -0.790787         0.180067
 C        -1.125060        -0.378926         0.683336
 C        -2.491264        -0.014477         1.171971
 C        -2.928876         1.418505         0.800300
 O        -3.428490        -0.923774         0.458534
 C        -3.029628        -2.345842         0.549466
 C        -2.533972        -2.773751        -0.754999
 O        -2.276260        -3.911886        -1.053613
 H         1.865096        -1.646754         0.645993
 H         1.195757        -2.097390        -0.981193
 H         1.849611        -0.454575        -0.643554
 H        -2.627514        -0.329654         2.193293
 H        -2.180598         2.131081         1.154717
 H        -3.005607         1.614588        -0.289658
 H        -3.985877         1.617102         1.166800
 H        -2.255503        -2.548274         1.304564
 H        -3.907278        -2.879407         0.829882
 H        -2.494756        -1.796683        -1.387584
