19
Iteration:  1134charge 0 multiplicity 1
 C         1.369563        -0.157598        -0.066384
 C        -0.014299        -0.150259         0.409491
 C        -1.138735         0.139952         0.088292
 C        -2.593494         0.045353         0.275466
 C        -3.333707         1.074290        -0.586240
 O        -3.071330        -1.256009        -0.022861
 C        -2.274572        -2.285388         0.651892
 C        -3.063703        -3.517668         0.466429
 O        -2.602378        -4.660109         0.551694
 H         2.066511         0.312672         0.675021
 H         1.598287        -1.257290        -0.031352
 H         1.570809         0.247488        -1.096075
 H        -2.721633         0.226401         1.355368
 H        -4.080594         1.739800        -0.148843
 H        -2.627352         1.739635        -1.097566
 H        -3.674636         0.473721        -1.432543
 H        -1.258180        -2.275935         0.195735
 H        -2.189973        -2.181209         1.782542
 H        -4.166590        -3.374237         0.398859
