19
Iteration:  4495charge 0 multiplicity 1
 C         1.654350        -0.555657         0.153445
 C         0.289167        -0.411669         0.510390
 C        -0.869465        -0.042225         0.630962
 C        -2.225780        -0.224099         1.023892
 C        -2.864147         1.181805         1.005283
 O        -3.225216        -1.014570         0.220147
 C        -3.149817        -2.404004         0.407662
 C        -3.014588        -3.093630        -0.991185
 O        -3.165618        -4.286756        -1.128255
 H         2.379696         0.300467         0.090484
 H         2.019276        -1.201438         0.925057
 H         1.839726        -1.140233        -0.759760
 H        -2.093902        -0.653269         2.030630
 H        -2.497556         1.730254         1.943871
 H        -2.741621         1.730410         0.070990
 H        -3.902964         1.321085         1.243980
 H        -2.312005        -2.493869         1.094679
 H        -4.010863        -3.016259         0.799107
 H        -3.131048        -2.365585        -1.920806
