19
Iteration:  1581
 C         1.686014         0.681355        -0.188955
 C         0.207769         0.376932         0.059933
 C        -0.919386        -0.072649         0.169525
 C        -2.344387        -0.268337         0.493788
 C        -3.173465         0.888436        -0.097347
 O        -2.949534        -1.468670        -0.036088
 C        -2.245675        -2.689378         0.159606
 C        -3.302193        -3.721227         0.162584
 O        -3.592572        -4.522685         0.988935
 H         2.251649        -0.239542        -0.572932
 H         1.810493         1.553860        -0.884856
 H         2.144452         0.915524         0.803139
 H        -2.427709        -0.336800         1.607019
 H        -2.585575         1.224343        -0.978931
 H        -4.158464         0.583800        -0.447380
 H        -3.095452         1.788625         0.409101
 H        -1.538337        -2.885409        -0.697764
 H        -1.615071        -2.733571         1.095976
 H        -3.896090        -3.579001        -0.745266
