19
Iteration:  3480
 C         1.404411        -0.821854        -0.532113
 C         0.026708        -0.562191         0.044649
 C        -1.174019        -0.415109         0.249673
 C        -2.433593        -0.017097         0.957581
 C        -3.051047         1.358254         0.522324
 O        -3.464583        -0.893703         0.642335
 C        -3.261078        -2.383822         0.688887
 C        -2.523890        -3.027798        -0.402365
 O        -2.195733        -4.194624        -0.419183
 H         1.191404        -0.542997        -1.599996
 H         2.251003        -0.119696        -0.137498
 H         1.875097        -1.803830        -0.373530
 H        -2.165201        -0.113237         2.037870
 H        -2.837119         2.177804         1.247537
 H        -2.701933         1.787986        -0.491684
 H        -4.112766         1.127337         0.500194
 H        -2.815978        -2.627515         1.644343
 H        -4.276135        -2.757958         0.636218
 H        -2.538514        -2.482518        -1.462087
