19
Iteration:  3678charge 0 multiplicity 1
 C         1.406915        -0.767741        -0.417436
 C         0.008110        -0.619850         0.048957
 C        -1.222915        -0.499970         0.107850
 C        -2.370779        -0.074450         0.912901
 C        -2.840134         1.396094         0.824881
 O        -3.568607        -0.900732         0.496300
 C        -3.433451        -2.346271         0.532627
 C        -2.623285        -3.034212        -0.496834
 O        -2.066897        -4.137082        -0.356004
 H         2.027918         0.152278        -0.314219
 H         1.947474        -1.512530         0.244237
 H         1.569226        -1.257110        -1.339408
 H        -2.275588        -0.274251         2.005146
 H        -2.181769         2.010908         1.489126
 H        -2.873377         1.784607        -0.189481
 H        -3.854858         1.651845         1.283210
 H        -2.957134        -2.640143         1.533706
 H        -4.472211        -2.688641         0.251670
 H        -2.702576        -2.468449        -1.460439
