19
Iteration:   247charge 0 multiplicity 1
 C         1.624530         0.438037        -0.023142
 C         0.209779         0.126745        -0.045046
 C        -1.003090        -0.041553         0.050091
 C        -2.452965        -0.042478         0.054345
 C        -3.102093         0.940708        -1.034040
 O        -3.006417        -1.448182        -0.086243
 C        -2.377268        -2.498348         0.568215
 C        -3.405314        -3.616030         0.826217
 O        -3.130356        -4.694281         1.312455
 H         2.223114        -0.157715         0.619193
 H         1.995113         0.437595        -1.048169
 H         1.736511         1.518069         0.257086
 H        -2.797251         0.271696         1.111381
 H        -3.997983         0.591652        -1.528394
 H        -3.426463         1.810372        -0.424670
 H        -2.395657         1.304632        -1.824716
 H        -1.443700        -2.823273         0.040267
 H        -2.037480        -2.265464         1.629973
 H        -4.453945        -3.331149         0.736456
