19
Iteration:  1132charge 0 multiplicity 1
 C         1.374230        -0.163645        -0.051434
 C        -0.006495        -0.147043         0.383567
 C        -1.143465         0.135256         0.078425
 C        -2.600903         0.031913         0.286215
 C        -3.311811         1.090476        -0.575509
 O        -3.078776        -1.262454        -0.033690
 C        -2.288853        -2.281705         0.666037
 C        -3.062137        -3.511452         0.463961
 O        -2.592338        -4.657129         0.551554
 H         2.041010         0.286159         0.678158
 H         1.621430        -1.192506        -0.107820
 H         1.530976         0.294073        -1.059553
 H        -2.797316         0.248641         1.366743
 H        -4.091762         1.699585        -0.164870
 H        -2.588598         1.707128        -1.109384
 H        -3.727007         0.504235        -1.485908
 H        -1.282961        -2.280023         0.291576
 H        -2.202453        -2.257710         1.779107
 H        -4.141219        -3.364507         0.440469
