19
Iteration:  2053charge 0 multiplicity 1
 C         1.123912        -1.093753        -0.575403
 C        -0.121131        -0.548141         0.015433
 C        -1.258269        -0.302719         0.423438
 C        -2.690329         0.107181         0.707537
 C        -3.225908         1.205621        -0.319117
 O        -3.615858        -1.045687         0.473546
 C        -2.975334        -2.189238         1.029213
 C        -2.253802        -2.943681        -0.050287
 O        -1.709943        -4.047851         0.086911
 H         1.564555        -0.478295        -1.380173
 H         1.995680        -1.166034         0.150854
 H         1.003723        -2.157434        -0.936609
 H        -2.877132         0.345022         1.777310
 H        -3.959553         1.858101         0.203906
 H        -2.321461         1.794736        -0.780745
 H        -3.735741         0.708340        -1.129344
 H        -2.413874        -2.063592         2.001392
 H        -3.828514        -2.879902         1.257428
 H        -2.240043        -2.482693        -0.967938
