19
Iteration:  3910charge 0 multiplicity 1
 C         0.958986        -1.476581        -0.502466
 C        -0.160786        -0.693981         0.075193
 C        -1.097039        -0.061511         0.591006
 C        -2.438581         0.025614         1.085566
 C        -3.170393         1.411171         1.031954
 O        -3.347513        -0.897376         0.375810
 C        -3.111660        -2.228972         0.405005
 C        -2.329645        -2.848402        -0.710214
 O        -1.985201        -4.019504        -0.555786
 H         1.994500        -1.462942        -0.099126
 H         0.722965        -2.571412        -0.460561
 H         1.152471        -1.114403        -1.434799
 H        -2.452004        -0.352113         2.135440
 H        -2.495707         2.149557         1.536883
 H        -3.199622         1.679717        -0.085248
 H        -4.177956         1.499171         1.378885
 H        -2.837518        -2.690883         1.379763
 H        -4.074443        -2.846391         0.336964
 H        -1.951899        -2.330081        -1.619192
