19
Iteration:  4088charge 0 multiplicity 1
 C         1.214393        -1.223183        -0.342852
 C         0.006995        -0.773816         0.333149
 C        -1.142690        -0.588137         0.709339
 C        -2.447646        -0.172474         1.071900
 C        -2.801339         1.374949         0.632731
 O        -3.588644        -0.893357         0.672225
 C        -3.346500        -2.333358         0.492203
 C        -2.693603        -2.741871        -0.808887
 O        -1.905330        -3.663155        -0.860371
 H         1.095090        -2.307839        -0.723481
 H         1.099258        -0.609370        -1.342043
 H         2.147911        -0.948761         0.175408
 H        -2.451493        -0.137820         2.183846
 H        -1.932253         2.030988         0.858134
 H        -2.853560         1.281024        -0.460654
 H        -3.802678         1.678313         1.197392
 H        -2.648691        -2.758998         1.251241
 H        -4.349390        -2.783300         0.445478
 H        -2.716784        -2.230663        -1.715726
