19
Iteration:    66
 C         1.761261         0.225860        -0.161127
 C         0.271465         0.226729        -0.081490
 C        -0.970231         0.183649        -0.202482
 C        -2.404072        -0.041368        -0.006764
 C        -3.220221         0.681074        -1.121962
 O        -2.758042        -1.514928        -0.060537
 C        -2.785936        -2.277137         1.176659
 C        -3.479908        -3.534198         1.035497
 O        -3.027449        -4.677140         1.040007
 H         2.128649         1.234504         0.060128
 H         2.233337        -0.482805         0.539203
 H         1.950240         0.011999        -1.235555
 H        -2.642875         0.325153         0.974377
 H        -4.273767         0.391913        -1.104251
 H        -3.230100         1.698996        -0.785004
 H        -2.792034         0.588377        -2.107415
 H        -1.823144        -2.530982         1.679558
 H        -3.372558        -1.686442         1.896458
 H        -4.523820        -3.284003         0.687506
