19
Iteration:  4274
 C         1.331277        -0.908387        -0.078726
 C         0.071193        -0.625370         0.500588
 C        -1.112821        -0.357942         0.626939
 C        -2.430700        -0.107789         1.090929
 C        -2.849721         1.304324         0.987018
 O        -3.307315        -0.891750         0.250066
 C        -3.032164        -2.296576         0.383540
 C        -2.522718        -2.929790        -0.866310
 O        -2.794270        -4.119029        -1.017471
 H         1.563846        -0.364768        -1.016094
 H         2.172077        -0.615945         0.616231
 H         1.472746        -1.956993        -0.350970
 H        -2.724409        -0.424902         2.209397
 H        -2.181064         2.088093         1.044402
 H        -3.122572         1.539168        -0.052927
 H        -3.692838         1.469634         1.656050
 H        -2.420391        -2.465743         1.344190
 H        -3.911029        -2.928924         0.550208
 H        -1.845166        -2.306598        -1.566158
