19
Iteration:  3103charge 0 multiplicity 1
 C         1.197147        -1.022732        -0.819349
 C        -0.054200        -0.508452        -0.149574
 C        -1.198217        -0.650540         0.262489
 C        -2.418495        -0.127586         0.856006
 C        -2.913469         1.361500         0.482735
 O        -3.707453        -0.925251         0.535785
 C        -3.391675        -2.375477         0.739211
 C        -2.478822        -2.881746        -0.246944
 O        -1.729962        -3.845338         0.009800
 H         2.029920        -0.781892        -0.208109
 H         1.178270        -2.079137        -0.613216
 H         1.404594        -0.593008        -1.856242
 H        -2.207458        -0.290792         1.959914
 H        -3.998610         1.223513         0.356820
 H        -2.743053         2.091612         1.313834
 H        -2.430555         1.813617        -0.428592
 H        -3.165626        -2.681167         1.790422
 H        -4.467535        -2.792414         0.613114
 H        -2.346191        -2.311698        -1.229840
