19
Iteration:  2699
 C         1.525254        -0.279174        -0.582568
 C         0.183881        -0.189619        -0.052798
 C        -1.069099        -0.128951         0.083102
 C        -2.325664        -0.048569         0.671047
 C        -3.127586         0.939710        -0.138356
 O        -3.443411        -1.102073         0.838348
 C        -2.814025        -2.376432         1.186773
 C        -2.801124        -3.239098        -0.045016
 O        -2.781233        -4.456914        -0.256265
 H         1.570887        -1.106364        -1.213693
 H         1.741456         0.647990        -1.142007
 H         2.345637        -0.277313         0.186226
 H        -2.211200         0.280565         1.703536
 H        -3.779892         1.382501         0.614206
 H        -2.464404         1.709519        -0.562439
 H        -3.622148         0.417803        -0.924123
 H        -1.694416        -2.276225         1.272792
 H        -3.334940        -2.686753         2.121747
 H        -2.684061        -2.499276        -0.908993
