19
Iteration:  4364
 C         1.658374        -0.449672         0.068107
 C         0.254080        -0.491130         0.386712
 C        -0.934814        -0.525786         0.733758
 C        -2.410753        -0.275616         1.107406
 C        -2.633500         1.231297         0.881693
 O        -3.345703        -0.945712         0.233826
 C        -3.427400        -2.345179         0.409918
 C        -2.997217        -2.987564        -0.939430
 O        -2.822184        -4.176356        -1.032009
 H         1.916011        -1.508323        -0.172165
 H         1.768166         0.161781        -0.820221
 H         2.268983         0.036989         0.882306
 H        -2.514586        -0.629148         2.205057
 H        -2.295069         1.746430         1.796609
 H        -2.018459         1.566807         0.049854
 H        -3.663676         1.260253         0.673065
 H        -2.608741        -2.687770         1.211645
 H        -4.335042        -2.856467         0.811425
 H        -2.802469        -2.219040        -1.764567
