19
Iteration:  3192
 C         1.078739        -1.266802        -0.597852
 C        -0.163058        -0.531022        -0.184851
 C        -1.183794        -0.099792         0.327181
 C        -2.482135        -0.042064         0.856689
 C        -3.089290         1.399129         0.637831
 O        -3.569472        -0.926175         0.382239
 C        -3.084044        -2.211332         0.709239
 C        -2.420362        -3.059056        -0.375639
 O        -1.780044        -4.062462        -0.072719
 H         1.353392        -0.889704        -1.540685
 H         1.949891        -1.339338         0.076521
 H         0.698325        -2.316322        -0.791695
 H        -2.451645        -0.369035         1.930999
 H        -3.192549         1.782755         1.666703
 H        -2.426186         2.120957         0.033138
 H        -4.027148         1.288935         0.171621
 H        -2.337428        -2.375846         1.520708
 H        -3.979227        -2.913990         0.817153
 H        -2.701595        -2.624654        -1.394701
