19
Iteration:   156charge 0 multiplicity 1
 C         1.498758         0.536729        -0.254628
 C         0.226426        -0.059447         0.103196
 C        -0.998361        -0.056403         0.080501
 C        -2.376395        -0.094995         0.053126
 C        -3.047433         0.624402        -1.152629
 O        -2.859390        -1.441023         0.040918
 C        -2.455889        -2.284665         1.069158
 C        -3.379802        -3.451958         0.860422
 O        -3.215682        -4.633037         0.939941
 H         1.769373         0.415679        -1.358995
 H         1.448234         1.615595        -0.092510
 H         2.365558         0.161888         0.179871
 H        -2.779247         0.447417         0.949624
 H        -2.503868         1.491971        -1.542755
 H        -2.975596        -0.065416        -1.964775
 H        -4.061951         0.758214        -0.964659
 H        -1.353113        -2.445290         1.061707
 H        -2.691764        -1.908499         2.131144
 H        -4.481662        -3.087751         0.744655
