19
Iteration:  4595
 C         1.379799        -0.688282        -0.011061
 C         0.220917        -0.365988         0.729379
 C        -0.924684        -0.323006         1.118837
 C        -2.386715        -0.081131         1.124367
 C        -2.973366         1.255919         0.885783
 O        -2.988226        -1.050543         0.188411
 C        -2.509120        -2.366952         0.253557
 C        -2.897927        -3.131213        -1.072322
 O        -3.489536        -4.177156        -1.197928
 H         1.400946        -1.450104        -0.838130
 H         1.832625         0.155655        -0.548409
 H         2.223522        -0.898310         0.713343
 H        -2.820733        -0.366025         2.195369
 H        -2.546049         2.104426         1.585887
 H        -3.027955         1.679080        -0.095281
 H        -4.073512         1.321545         1.186716
 H        -1.454109        -2.340124         0.223948
 H        -2.874301        -2.915623         1.169307
 H        -2.794587        -2.446231        -1.897762
