19
Iteration:  4547
 C         1.517552        -0.626489         0.116877
 C         0.127244        -0.475425         0.434388
 C        -0.923410        -0.236463         0.971681
 C        -2.344639        -0.159208         1.107645
 C        -2.903876         1.182111         0.968739
 O        -3.090236        -0.966189         0.108383
 C        -2.739142        -2.385552         0.328653
 C        -2.900608        -3.055317        -0.967273
 O        -3.340698        -4.196561        -1.123632
 H         1.549432        -0.247000        -0.944429
 H         2.280882         0.002124         0.623302
 H         1.926023        -1.621141         0.029463
 H        -2.607865        -0.526213         2.153301
 H        -2.650096         1.884151         1.818374
 H        -2.774375         1.755285        -0.027261
 H        -3.986771         1.131133         1.091027
 H        -1.736253        -2.409183         0.783449
 H        -3.474775        -2.968323         0.888843
 H        -2.500629        -2.523891        -1.821815
