19
Iteration:  1667
 C         1.582561         0.374805        -0.151502
 C         0.096917         0.163102        -0.101912
 C        -1.017158        -0.044876         0.243171
 C        -2.411235        -0.233597         0.454007
 C        -3.248256         1.005627        -0.004723
 O        -2.836647        -1.394680        -0.183587
 C        -2.236268        -2.599735         0.259847
 C        -3.372198        -3.538467         0.199729
 O        -3.249586        -4.530361         0.946612
 H         2.067452         0.360259         0.880702
 H         2.029791        -0.478719        -0.641393
 H         1.953577         1.260844        -0.677875
 H        -2.554488        -0.394753         1.542273
 H        -3.173259         1.880749         0.672957
 H        -2.723943         1.471465        -0.930398
 H        -4.181167         0.592936        -0.349275
 H        -1.399960        -2.850700        -0.404833
 H        -1.914528        -2.451059         1.326176
 H        -4.321195        -3.338293        -0.479170
