19
Iteration:  1712charge 0 multiplicity 1
 C         1.689968         0.190006        -0.211310
 C         0.268160         0.106375         0.058259
 C        -0.915021         0.111067         0.140423
 C        -2.468763        -0.028175         0.314143
 C        -3.330901         1.239180         0.062148
 O        -2.990042        -1.303485        -0.322048
 C        -2.488552        -2.451376         0.401141
 C        -3.287065        -3.814278         0.265271
 O        -3.110983        -4.822558         0.923228
 H         2.173117         1.083696         0.263997
 H         2.349016        -0.579373         0.131754
 H         1.875135         0.293544        -1.267560
 H        -2.679654        -0.283631         1.349159
 H        -3.897912         1.339460         1.018073
 H        -2.690777         2.104208         0.181017
 H        -3.937639         1.309419        -0.853939
 H        -1.471205        -2.573739         0.102137
 H        -2.498205        -2.272989         1.509651
 H        -4.080194        -3.869602        -0.492600
