19
Iteration:  2772
 C         1.411960        -0.384625        -0.664793
 C         0.052821        -0.333413        -0.192428
 C        -1.147338        -0.358175         0.244714
 C        -2.447025         0.046017         0.903090
 C        -2.994051         1.161032        -0.021062
 O        -3.468810        -1.001738         0.782479
 C        -2.832224        -2.332402         1.029311
 C        -2.749342        -3.263880        -0.162611
 O        -2.537629        -4.465505        -0.171065
 H         2.088411        -0.869340         0.105069
 H         1.553601        -0.736698        -1.664139
 H         1.651687         0.704504        -0.873480
 H        -2.372487         0.352559         1.971640
 H        -4.068439         1.142386         0.044765
 H        -2.583626         2.232407         0.044299
 H        -2.649906         0.768467        -0.931022
 H        -1.760601        -2.157300         1.137047
 H        -3.335050        -2.881094         1.779923
 H        -2.821526        -2.711996        -1.099698
