19
Iteration:  1246
 C         1.614191         0.116037         0.151325
 C         0.214552        -0.034181         0.117915
 C        -1.016558        -0.034936        -0.023862
 C        -2.487730         0.033556         0.270661
 C        -3.404583         1.146544        -0.431110
 O        -3.201073        -1.261095         0.209909
 C        -2.393737        -2.371456         0.323349
 C        -3.194506        -3.660110         0.291558
 O        -2.815456        -4.753924         0.749025
 H         2.069214        -0.046777        -0.863423
 H         1.917881         1.211397         0.414156
 H         2.130353        -0.537732         0.875138
 H        -2.553195         0.254445         1.368122
 H        -4.195443         0.598587        -0.991630
 H        -3.816234         1.731351         0.425018
 H        -2.854306         1.866917        -1.028861
 H        -1.720745        -2.404621        -0.566167
 H        -1.594825        -2.373582         1.101016
 H        -3.959298        -3.636381        -0.535274
