19
Iteration:  2606
 C         1.345028        -0.459619        -0.586187
 C         0.058556        -0.206686        -0.072708
 C        -1.127550        -0.087355         0.284081
 C        -2.473901         0.056951         0.636414
 C        -3.251616         1.185604        -0.139901
 O        -3.195923        -1.209330         0.617908
 C        -2.480867        -2.422002         1.083474
 C        -2.485531        -3.279196        -0.108813
 O        -3.019444        -4.400868        -0.026732
 H         1.727555         0.381727        -1.257156
 H         1.892690        -0.702734         0.331414
 H         1.346226        -1.431077        -1.051237
 H        -2.455892         0.433583         1.687179
 H        -4.311095         0.987410         0.148332
 H        -2.974785         2.090940         0.325549
 H        -3.065644         1.177088        -1.265745
 H        -1.477947        -2.029748         1.496246
 H        -3.066564        -2.926613         1.898060
 H        -2.043626        -2.883954        -1.002012
