19
Iteration:  4572charge 0 multiplicity 1
 C         1.440219        -0.624516         0.013713
 C         0.154304        -0.563337         0.655878
 C        -0.978816        -0.189342         0.970681
 C        -2.460822        -0.169613         1.186198
 C        -2.934718         1.284288         0.962620
 O        -2.967423        -1.025655         0.149301
 C        -2.585165        -2.406166         0.262035
 C        -2.901125        -3.052975        -1.056732
 O        -3.415223        -4.161220        -1.115487
 H         1.375000        -0.838762        -1.107228
 H         2.014777         0.308935         0.001620
 H         2.176800        -1.350651         0.417129
 H        -2.738715        -0.658967         2.216337
 H        -2.482808         2.229100         1.483332
 H        -2.796077         1.398198        -0.124474
 H        -4.022662         1.536768         1.012126
 H        -1.543094        -2.451966         0.440303
 H        -3.179175        -3.031202         0.962327
 H        -2.362375        -2.694858        -1.887374
