19
Iteration:   864
 C         1.462585        -0.349815        -0.092701
 C         0.113322         0.172881         0.005789
 C        -1.093439         0.383816        -0.016955
 C        -2.630231         0.133946         0.261768
 C        -3.478246         1.045650        -0.635845
 O        -2.933459        -1.283795         0.030917
 C        -2.591586        -2.359974         1.079375
 C        -2.472153        -3.666839         0.304442
 O        -2.980285        -4.725071         0.702221
 H         2.098350        -0.196261         0.788919
 H         1.247392        -1.442042        -0.140028
 H         1.989832        -0.028577        -0.949121
 H        -2.988794         0.327033         1.268392
 H        -4.225696         1.619155        -0.000076
 H        -2.956842         1.925335        -1.000722
 H        -4.095018         0.492067        -1.415279
 H        -1.705260        -2.077975         1.622110
 H        -3.359924        -2.383583         1.837953
 H        -1.957466        -3.625955        -0.685092
