19
Iteration:  2069charge 0 multiplicity 1
 C         1.013588        -1.132787        -0.543737
 C        -0.170985        -0.538412        -0.000685
 C        -1.260162        -0.194219         0.312887
 C        -2.647830         0.111181         0.594918
 C        -3.137130         1.247330        -0.242351
 O        -3.513229        -1.004647         0.525602
 C        -3.244640        -2.353088         1.041753
 C        -2.222870        -2.994255         0.005745
 O        -1.555548        -4.040642         0.073896
 H         1.182475        -0.683506        -1.536250
 H         1.905378        -0.970113         0.026044
 H         0.768948        -2.189930        -0.551143
 H        -2.598076         0.523725         1.627769
 H        -3.968869         1.798297         0.212743
 H        -2.373819         1.929740        -0.387616
 H        -3.498391         0.836156        -1.230908
 H        -2.720303        -2.163205         1.978357
 H        -4.186518        -2.927124         1.192542
 H        -2.195616        -2.374937        -1.012993
