19
Iteration:  4253charge 0 multiplicity 1
 C         1.423343        -1.049010        -0.062935
 C         0.038828        -0.600281         0.232534
 C        -1.061544        -0.355757         0.700006
 C        -2.504294        -0.055317         1.101968
 C        -3.006813         1.352288         0.988984
 O        -3.340332        -0.865662         0.264096
 C        -3.050836        -2.263222         0.469443
 C        -2.502626        -2.968738        -0.725836
 O        -2.697766        -4.107442        -1.133441
 H         2.100445        -0.427924        -0.687081
 H         2.022124        -1.282076         0.858226
 H         1.306207        -1.995733        -0.643849
 H        -2.739425        -0.494493         2.105004
 H        -2.227363         1.938249         1.404067
 H        -3.066745         1.691553        -0.062196
 H        -3.859483         1.506648         1.636322
 H        -2.147047        -2.239390         1.083073
 H        -3.848573        -2.775441         0.874396
 H        -1.827165        -2.265896        -1.232682
