19
Iteration:  4232
 C         1.342359        -1.186220        -0.060933
 C         0.037386        -0.589296         0.165396
 C        -1.004174        -0.145876         0.686712
 C        -2.417604        -0.018695         1.055468
 C        -3.027045         1.449847         0.986876
 O        -3.346012        -0.984995         0.321376
 C        -3.129318        -2.389673         0.579220
 C        -2.468223        -2.935908        -0.768769
 O        -2.635829        -4.064330        -1.153653
 H         2.102943        -0.364714        -0.146374
 H         1.700424        -1.741014         0.843842
 H         1.442390        -1.840380        -0.981699
 H        -2.489863        -0.487753         2.009366
 H        -2.586084         2.060400         1.746365
 H        -2.853479         1.848845        -0.052932
 H        -4.058472         1.331703         1.305793
 H        -2.413384        -2.495937         1.354284
 H        -4.072993        -2.763037         0.684217
 H        -1.919615        -2.162857        -1.298692
