19
Iteration:  1925
 C         1.459309        -0.465083        -0.242754
 C         0.030578        -0.453347        -0.114206
 C        -1.109067        -0.200768         0.146812
 C        -2.516956         0.163279         0.490919
 C        -3.376250         1.005763        -0.487317
 O        -3.339429        -1.061790         0.752676
 C        -2.619606        -2.242240         1.108470
 C        -2.761373        -3.258375         0.015774
 O        -2.435250        -4.398547        -0.006972
 H         1.935314        -1.006869         0.595068
 H         1.866134        -0.965051        -1.178270
 H         1.765133         0.639257        -0.232443
 H        -2.555147         0.747481         1.473781
 H        -4.428981         0.754940        -0.305542
 H        -3.416189         2.132124        -0.264436
 H        -3.124105         0.755038        -1.480436
 H        -1.547361        -2.157373         1.204043
 H        -3.034142        -2.565549         2.095692
 H        -3.195186        -2.774576        -0.920746
