19
Iteration:   600charge 0 multiplicity 1
 C         1.723908         0.693701        -0.089799
 C         0.310156         0.347639        -0.181118
 C        -0.816649        -0.123539         0.087688
 C        -2.362111        -0.056019         0.163320
 C        -3.114115         0.950530        -0.840332
 O        -2.957585        -1.481503        -0.001656
 C        -2.849374        -2.441582         1.047243
 C        -3.594192        -3.804044         0.699747
 O        -2.948848        -4.877474         0.720122
 H         1.898324         1.287598         0.845473
 H         2.451715        -0.132408         0.054442
 H         2.056103         1.180665        -1.119199
 H        -2.504752         0.259972         1.224542
 H        -4.102432         0.460132        -1.022495
 H        -3.167386         1.913273        -0.265627
 H        -2.445349         1.214134        -1.675971
 H        -1.963976        -2.741854         1.516960
 H        -3.459454        -1.988335         1.901431
 H        -4.681788        -3.753424         0.328286
