19
Iteration:  4271
 C         1.332509        -0.936928        -0.070530
 C         0.049538        -0.607776         0.465398
 C        -1.105818        -0.377874         0.626492
 C        -2.424823        -0.134423         1.096628
 C        -2.865871         1.314047         0.996214
 O        -3.313969        -0.883208         0.236261
 C        -3.022365        -2.257438         0.407556
 C        -2.501538        -2.942707        -0.864660
 O        -2.783894        -4.109849        -1.029064
 H         1.532493        -0.322619        -0.953220
 H         2.131609        -0.722422         0.675573
 H         1.435334        -1.941022        -0.383812
 H        -2.605860        -0.405900         2.193782
 H        -2.156373         2.154963         1.057251
 H        -3.181570         1.511047        -0.042301
 H        -3.799266         1.481885         1.607214
 H        -2.409025        -2.494477         1.354225
 H        -3.962235        -2.931687         0.742041
 H        -1.819821        -2.321056        -1.569595
