19
Iteration:  1717
 C         1.728313         0.173461        -0.218918
 C         0.294914         0.117341         0.076815
 C        -0.954480         0.114135         0.120603
 C        -2.430269        -0.043539         0.338124
 C        -3.344090         1.240201         0.039375
 O        -3.002996        -1.286067        -0.289472
 C        -2.548833        -2.488205         0.423917
 C        -3.295941        -3.827325         0.256559
 O        -3.067915        -4.783707         0.904513
 H         2.098045         1.159724         0.096922
 H         2.352512        -0.700703         0.281657
 H         1.892645         0.225636        -1.345246
 H        -2.622784        -0.182298         1.439208
 H        -4.072716         1.210696         0.859587
 H        -2.737952         2.163557         0.255025
 H        -3.920987         1.268152        -0.894648
 H        -1.447795        -2.559145         0.064188
 H        -2.558617        -2.330164         1.508960
 H        -4.101658        -3.802466        -0.620260
