19
Iteration:  1935charge 0 multiplicity 1
 C         1.519318        -0.541385        -0.228767
 C         0.028352        -0.369890        -0.142924
 C        -1.138793        -0.199738         0.079891
 C        -2.487615         0.131445         0.578705
 C        -3.423540         0.873812        -0.427006
 O        -3.372180        -1.062039         0.713527
 C        -2.673535        -2.201751         1.092888
 C        -2.778410        -3.167899        -0.046427
 O        -2.393220        -4.347850         0.035561
 H         1.923799        -0.870087         0.706518
 H         1.884831        -1.175236        -1.105112
 H         2.027333         0.452724        -0.424390
 H        -2.345667         0.751220         1.534003
 H        -4.445984         0.496785        -0.334032
 H        -3.213572         1.997960        -0.229663
 H        -3.102598         0.782360        -1.444108
 H        -1.649536        -1.900258         1.292140
 H        -3.064022        -2.741141         2.020093
 H        -3.171215        -2.742122        -0.947359
