19
Iteration:  1150
 C         1.416849        -0.254142        -0.039750
 C         0.050956        -0.040445         0.430435
 C        -1.111111         0.177436         0.224878
 C        -2.561712         0.156325         0.274040
 C        -3.456737         0.994075        -0.660727
 O        -3.022230        -1.224516         0.050484
 C        -2.213495        -2.252700         0.512411
 C        -3.104768        -3.557527         0.478472
 O        -2.670463        -4.720793         0.561241
 H         2.070772         0.548509         0.308708
 H         1.931114        -1.223672         0.176920
 H         1.313460        -0.168526        -1.116388
 H        -2.885122         0.486642         1.287613
 H        -4.316506         1.255718        -0.029632
 H        -2.919413         1.836651        -1.123756
 H        -3.996744         0.441541        -1.462911
 H        -1.330372        -2.563497        -0.101738
 H        -1.712391        -2.047010         1.494038
 H        -4.158182        -3.337788         0.081161
