19
Iteration:  2179charge 0 multiplicity 1
 C         0.823230        -1.455865        -0.643759
 C        -0.228203        -0.611228        -0.145367
 C        -1.355767        -0.118957         0.065355
 C        -2.705574         0.025712         0.550731
 C        -3.069854         1.516301         0.423821
 O        -3.612713        -1.039319         0.087996
 C        -3.373625        -2.380913         0.651208
 C        -2.036284        -3.041503         0.062988
 O        -1.212286        -3.747372         0.583561
 H         0.566169        -2.510396        -0.373723
 H         1.017818        -1.325691        -1.695811
 H         1.773849        -1.327948        -0.170749
 H        -2.625507        -0.100974         1.662698
 H        -4.030211         1.658793         0.922676
 H        -2.298433         2.055280         0.959623
 H        -3.093709         1.874549        -0.631532
 H        -3.549944        -2.338973         1.758158
 H        -4.130636        -3.116710         0.223865
 H        -1.894351        -2.665024        -1.054919
