19
Iteration:  4798
 C         1.871859        -0.034838         0.430225
 C         0.446193        -0.351618         0.705842
 C        -0.773578        -0.456187         0.781530
 C        -2.248545        -0.446451         1.039502
 C        -2.750962         1.000392         1.095777
 O        -3.037570        -1.000700        -0.023114
 C        -2.795926        -2.395743         0.152488
 C        -3.771801        -3.122927        -0.860246
 O        -3.487261        -4.186065        -1.403899
 H         1.719912         0.316044        -0.555104
 H         2.420732         0.603233         1.147620
 H         2.463125        -0.926541         0.402539
 H        -2.587965        -0.881591         1.929532
 H        -2.399262         1.587869         1.996603
 H        -2.555879         1.614462         0.266727
 H        -3.841525         0.963352         1.262157
 H        -1.808230        -2.703815         0.097050
 H        -3.088491        -2.700441         1.200631
 H        -4.523712        -2.406394        -1.198058
