19
Iteration:  1770charge 0 multiplicity 1
 C         1.627741         0.080912        -0.202928
 C         0.143608         0.064692        -0.200450
 C        -0.984196        -0.068181         0.183744
 C        -2.503704        -0.006460         0.482700
 C        -3.239224         1.129031        -0.243666
 O        -3.075218        -1.316682         0.111123
 C        -2.460706        -2.329775         0.832543
 C        -3.176990        -3.603800         0.193084
 O        -2.977339        -4.743852         0.502363
 H         1.929014         0.883979        -0.846774
 H         1.853685         0.097486         0.922828
 H         1.899754        -0.921786        -0.620900
 H        -2.678488         0.123035         1.579581
 H        -4.196264         0.816277        -0.594062
 H        -3.183994         1.991087         0.384397
 H        -2.729093         1.429806        -1.180372
 H        -1.387225        -2.278915         0.618849
 H        -2.601004        -2.318554         1.939847
 H        -3.803646        -3.281958        -0.635185
