19
Iteration:  4689charge 0 multiplicity 1
 C         1.741899        -0.491121         0.352142
 C         0.328897        -0.417882         0.611743
 C        -0.888942        -0.262222         0.644112
 C        -2.288876        -0.169575         1.070412
 C        -2.956218         1.133685         0.989558
 O        -3.111186        -1.064635         0.311453
 C        -2.688511        -2.395915         0.172630
 C        -3.364183        -3.022031        -0.982234
 O        -3.380099        -4.196264        -1.302913
 H         2.427204        -0.568168         1.225963
 H         2.127407        -1.492924        -0.106039
 H         2.052224         0.372252        -0.255317
 H        -2.444213        -0.509934         2.151198
 H        -2.476794         1.786785         1.747367
 H        -2.838789         1.543351        -0.021139
 H        -3.998224         1.017013         1.189629
 H        -1.598693        -2.279710        -0.034892
 H        -2.854732        -3.075121         1.049677
 H        -4.018906        -2.323045        -1.510225
