19
Iteration:  4671charge 0 multiplicity 1
 C         1.796725        -0.574085         0.255407
 C         0.305719        -0.472367         0.546192
 C        -0.870898        -0.225948         0.869339
 C        -2.351714        -0.203010         1.111879
 C        -3.069569         1.255842         0.944576
 O        -3.156703        -1.075711         0.293839
 C        -2.500650        -2.435018         0.232457
 C        -3.310957        -3.032136        -0.998916
 O        -3.433629        -4.191322        -1.322004
 H         2.455972        -0.932539         1.074930
 H         2.067789        -1.184515        -0.564594
 H         2.113764         0.452305         0.031486
 H        -2.384884        -0.581718         2.124579
 H        -2.830694         2.105106         1.638877
 H        -2.834321         1.732051         0.025005
 H        -4.185756         1.118345         0.929906
 H        -1.387381        -2.468973         0.023523
 H        -2.804012        -2.771430         1.206563
 H        -3.627239        -2.166001        -1.693657
