19
Iteration:  3758charge 0 multiplicity 1
 C         1.401410        -0.684078        -0.450071
 C         0.012074        -0.656618        -0.010345
 C        -1.156078        -0.684442         0.404562
 C        -2.460756        -0.222734         1.047605
 C        -2.646200         1.251304         0.707786
 O        -3.672559        -0.883429         0.478948
 C        -3.596454        -2.328242         0.528213
 C        -2.627917        -2.903098        -0.518525
 O        -1.942615        -3.921344        -0.414469
 H         1.415320        -1.009638        -1.531232
 H         2.062949         0.126362        -0.210142
 H         1.993539        -1.514701        -0.103942
 H        -2.573088        -0.494761         2.084645
 H        -1.800315         1.758376         0.253000
 H        -3.420520         1.290893        -0.116003
 H        -3.054982         1.784198         1.578897
 H        -3.510287        -2.648168         1.585971
 H        -4.616170        -2.617175         0.276087
 H        -2.611374        -2.261546        -1.449146
