19
Iteration:  1608
 C         1.658242         0.567650        -0.234640
 C         0.251605         0.265199         0.270830
 C        -0.916878         0.137597         0.175213
 C        -2.288547        -0.108879         0.360294
 C        -3.305025         0.938651        -0.117889
 O        -2.832594        -1.498133         0.072399
 C        -2.238257        -2.792565         0.051281
 C        -3.419064        -3.742133         0.084762
 O        -3.514711        -4.530735         1.044773
 H         2.350693        -0.215318        -0.112930
 H         1.596809         0.881263        -1.282532
 H         2.116544         1.400659         0.313573
 H        -2.339941        -0.157700         1.467968
 H        -2.735682         1.740602        -0.617184
 H        -3.866047         0.345914        -0.845338
 H        -3.854280         1.654861         0.599770
 H        -1.520893        -2.855795        -0.752978
 H        -1.645058        -3.086817         0.921007
 H        -4.319149        -3.659139        -0.694444
