19
Iteration:  3393
 C         1.382140        -0.780170        -0.423191
 C        -0.003655        -0.606748         0.021759
 C        -1.217364        -0.474480         0.158821
 C        -2.437811        -0.088357         0.836175
 C        -2.858812         1.360613         0.383314
 O        -3.620531        -0.995995         0.639779
 C        -3.222175        -2.418598         0.905964
 C        -2.778397        -3.022260        -0.411713
 O        -1.951152        -3.934857        -0.429589
 H         2.060322        -0.050593         0.109421
 H         1.717479        -1.854449        -0.108530
 H         1.573635        -0.603851        -1.481420
 H        -2.202302        -0.205288         1.918450
 H        -2.008686         2.032764         0.148583
 H        -3.383715         1.031370        -0.542832
 H        -3.528968         1.902298         1.083362
 H        -2.583164        -2.556427         1.829975
 H        -4.142478        -3.011260         1.069722
 H        -3.566740        -2.627692        -1.134342
