19
Iteration:  3283
 C         0.993288        -1.151894        -0.621567
 C        -0.225523        -0.673152         0.003547
 C        -1.260686        -0.347401         0.512104
 C        -2.623410         0.033141         0.960966
 C        -3.081344         1.467417         0.419082
 O        -3.423092        -0.971900         0.444677
 C        -2.956974        -2.239799         0.774067
 C        -2.138530        -2.933873        -0.450159
 O        -2.011333        -4.105640        -0.269228
 H         0.854786        -2.205386        -0.968031
 H         1.444180        -0.659718        -1.516038
 H         1.785707        -1.132336         0.068080
 H        -2.587231         0.161070         2.086899
 H        -2.198695         1.998608         0.111474
 H        -3.830862         1.499257        -0.304519
 H        -3.499639         1.992530         1.330606
 H        -2.531680        -2.091374         1.814406
 H        -3.850572        -2.885543         0.827669
 H        -1.957291        -2.489609        -1.518990
