19
Iteration:  1010
 C         1.605611         0.152297        -0.175749
 C         0.211509        -0.217421        -0.117750
 C        -1.005109        -0.247710         0.176387
 C        -2.526170         0.008500         0.399501
 C        -3.169348         0.915042        -0.540654
 O        -3.186183        -1.229826         0.021136
 C        -3.164385        -2.221796         0.998649
 C        -2.914015        -3.508753         0.281637
 O        -2.507395        -4.541283         0.671633
 H         2.000578        -0.488714        -0.969234
 H         1.790043         1.162046        -0.533841
 H         2.180085         0.010152         0.768238
 H        -2.709748         0.209547         1.450234
 H        -4.041576         0.317990        -0.917635
 H        -3.435807         1.946661        -0.240814
 H        -2.565649         1.047834        -1.472491
 H        -2.384565        -2.120533         1.728845
 H        -4.074165        -2.209212         1.615302
 H        -2.964321        -3.326756        -0.844754
