19
Iteration:  4980charge 0 multiplicity 1
 C         1.810421        -0.128994         0.611401
 C         0.375484        -0.096616         0.664600
 C        -0.828191        -0.331462         0.705990
 C        -2.212485        -0.560852         0.959075
 C        -2.800128         0.886171         1.384527
 O        -3.039505        -1.010091        -0.096265
 C        -2.529227        -2.514558        -0.249724
 C        -3.363074        -3.062811        -1.238665
 O        -3.978995        -4.065591        -0.920417
 H         2.145384         0.727067         1.216772
 H         2.032218        -1.065201         1.104399
 H         2.118720        -0.014191        -0.423624
 H        -2.249786        -1.327598         1.742824
 H        -2.547884         1.096118         2.429506
 H        -2.194051         1.654020         0.959948
 H        -3.836096         0.905509         1.330636
 H        -1.515469        -2.590298        -0.599877
 H        -2.752932        -2.975953         0.699742
 H        -3.232041        -2.685683        -2.371615
