19
Iteration:  3395
 C         1.389648        -0.778508        -0.413684
 C        -0.014017        -0.602155         0.014248
 C        -1.232159        -0.487637         0.146451
 C        -2.439058        -0.074861         0.830227
 C        -2.847782         1.355741         0.390216
 O        -3.605555        -1.001039         0.643884
 C        -3.232773        -2.405188         0.913384
 C        -2.778021        -3.038409        -0.403716
 O        -1.945911        -3.942533        -0.445038
 H         2.058477        -0.014737         0.104134
 H         1.645782        -1.786776        -0.035254
 H         1.476860        -0.623381        -1.484306
 H        -2.239729        -0.239020         1.917181
 H        -2.002789         2.047501         0.235313
 H        -3.363999         1.094021        -0.603568
 H        -3.482125         1.918554         1.026062
 H        -2.584659        -2.541924         1.859898
 H        -4.139625        -3.011117         1.095196
 H        -3.538192        -2.572245        -1.113672
