19
Iteration:  4117charge 0 multiplicity 1
 C         1.218338        -1.182745        -0.288561
 C        -0.163292        -0.925226         0.259741
 C        -1.174471        -0.411317         0.761310
 C        -2.504016        -0.032312         1.159844
 C        -2.757714         1.452697         0.695238
 O        -3.545682        -0.890628         0.565595
 C        -3.133264        -2.351054         0.540425
 C        -2.637151        -2.831852        -0.765355
 O        -2.018833        -3.840995        -1.034551
 H         1.589726        -2.153693         0.079759
 H         1.059319        -1.169094        -1.386547
 H         1.836040        -0.322780        -0.006186
 H        -2.662442        -0.134167         2.278318
 H        -1.847860         2.123063         0.778395
 H        -3.041569         1.300371        -0.344819
 H        -3.425748         1.986488         1.347708
 H        -2.530083        -2.684949         1.378602
 H        -4.090196        -2.906398         0.600785
 H        -2.880958        -2.143873        -1.676644
