19
Iteration:  2323charge 0 multiplicity 1
 C         1.225101        -0.579796        -0.699281
 C        -0.184492        -0.634997        -0.441665
 C        -1.168437        -0.434049         0.217329
 C        -2.510354        -0.069813         0.780836
 C        -2.944571         1.331463         0.314708
 O        -3.450026        -0.927630         0.092150
 C        -3.489129        -2.278310         0.559112
 C        -2.393761        -3.233181         0.111308
 O        -1.790743        -4.157403         0.706447
 H         1.591805         0.393730        -1.070755
 H         1.792559        -0.896828         0.160166
 H         1.481040        -1.257476        -1.460058
 H        -2.582618        -0.220456         1.861989
 H        -4.036171         1.368267         0.299019
 H        -2.674957         2.021024         1.171220
 H        -2.575328         1.656939        -0.609727
 H        -3.738326        -2.421416         1.612939
 H        -4.411239        -2.553281         0.015842
 H        -2.236927        -3.151087        -0.935643
