19
Iteration:  2055charge 0 multiplicity 1
 C         1.117993        -1.099746        -0.572773
 C        -0.135996        -0.537796         0.020646
 C        -1.247488        -0.294738         0.410858
 C        -2.679942         0.100319         0.701720
 C        -3.221654         1.218076        -0.315064
 O        -3.611014        -1.045718         0.475744
 C        -3.005204        -2.197237         1.030314
 C        -2.237861        -2.957660        -0.035923
 O        -1.693927        -4.044464         0.081641
 H         1.488208        -0.558273        -1.423201
 H         1.969979        -1.143919         0.155542
 H         0.990226        -2.156078        -0.940403
 H        -2.848644         0.359103         1.773845
 H        -3.968808         1.887403         0.205952
 H        -2.333021         1.790844        -0.744173
 H        -3.705437         0.723655        -1.174717
 H        -2.439903        -2.137810         2.002027
 H        -3.916342        -2.853051         1.274691
 H        -2.269044        -2.438631        -0.991515
