19
Iteration:  3446charge 0 multiplicity 1
 C         1.476085        -0.742588        -0.341479
 C        -0.091873        -0.671976        -0.284343
 C        -1.212902        -0.475405         0.191693
 C        -2.489810        -0.145436         0.903797
 C        -2.869748         1.326790         0.476755
 O        -3.598705        -0.984892         0.682803
 C        -3.175417        -2.348787         0.788734
 C        -2.631338        -2.930828        -0.474841
 O        -2.128175        -4.049896        -0.351795
 H         1.776013         0.125439        -0.931512
 H         1.809742        -0.494285         0.719173
 H         1.834647        -1.630578        -0.883169
 H        -2.308849        -0.184481         2.001965
 H        -2.579212         2.026455         1.278739
 H        -2.444725         1.605819        -0.505758
 H        -3.988339         1.471603         0.382178
 H        -2.395678        -2.473359         1.514709
 H        -3.998180        -2.970323         1.145250
 H        -2.987558        -2.267362        -1.234901
