19
Iteration:  1220charge 0 multiplicity 1
 C         1.530462        -0.052648         0.237250
 C         0.065835         0.141618        -0.109390
 C        -1.153684         0.067277         0.042501
 C        -2.624927         0.074423         0.356811
 C        -3.292528         1.144737        -0.498544
 O        -3.089513        -1.324264         0.283798
 C        -2.136081        -2.413257         0.258446
 C        -3.166389        -3.643785         0.328525
 O        -2.850244        -4.729935         0.710772
 H         2.161053         0.218304        -0.605123
 H         1.913582         0.460363         1.039897
 H         1.735880        -1.114833         0.342530
 H        -2.793454         0.289471         1.440414
 H        -4.114237         0.571672        -0.955311
 H        -3.531682         1.991680         0.146908
 H        -2.670215         1.478386        -1.342645
 H        -1.468788        -2.203418        -0.554620
 H        -1.480927        -2.542839         1.121280
 H        -4.248293        -3.327865         0.002888
