19
Iteration:  4250charge 0 multiplicity 1
 C         1.433012        -1.069935        -0.072018
 C         0.048747        -0.600574         0.207893
 C        -1.058501        -0.331001         0.712827
 C        -2.512512        -0.049902         1.091111
 C        -3.006872         1.348926         0.996952
 O        -3.345977        -0.869394         0.263619
 C        -3.051666        -2.266421         0.465907
 C        -2.518913        -2.976486        -0.722576
 O        -2.683675        -4.100306        -1.140472
 H         2.131827        -0.453603        -0.637612
 H         1.947499        -1.357469         0.885311
 H         1.360278        -1.953670        -0.652315
 H        -2.795270        -0.397552         2.189166
 H        -2.242062         2.009922         1.386056
 H        -3.056244         1.776364         0.007686
 H        -3.945839         1.495968         1.587502
 H        -2.157917        -2.310447         1.202548
 H        -3.862636        -2.912706         0.977897
 H        -1.767801        -2.231480        -1.204982
