19
Iteration:   566charge 0 multiplicity 1
 C         1.606507         0.651891         0.024107
 C         0.249995         0.244524        -0.141739
 C        -0.935809         0.063264        -0.183303
 C        -2.306596        -0.128034         0.182279
 C        -3.038924         0.738533        -0.780273
 O        -2.979089        -1.468019         0.054758
 C        -2.608868        -2.413979         1.069887
 C        -3.441132        -3.681856         0.580701
 O        -3.150414        -4.837412         0.792101
 H         1.911352         0.680824         1.068774
 H         2.301954         0.133231        -0.627961
 H         1.611100         1.814694        -0.169983
 H        -2.361684         0.183166         1.264406
 H        -4.177718         0.729312        -0.833158
 H        -2.822712         1.771963        -0.438100
 H        -2.724996         0.626410        -1.784967
 H        -1.556400        -2.568332         1.194042
 H        -3.129050        -1.972935         1.957282
 H        -4.141481        -3.448183        -0.270752
