19
Iteration:     7charge 0 multiplicity 1
 C         1.613958         0.143202        -0.175124
 C         0.191641        -0.008581        -0.125654
 C        -1.036186         0.061174        -0.033412
 C        -2.492800        -0.084614         0.047690
 C        -3.155485         0.703899        -1.070470
 O        -2.959621        -1.374118        -0.103268
 C        -2.566580        -2.165417         0.986119
 C        -3.154935        -3.582668         0.672936
 O        -3.106023        -4.508822         1.422501
 H         2.032766         0.144456         0.845180
 H         2.098447        -0.686915        -0.750216
 H         2.059079         1.091556        -0.633560
 H        -2.649523         0.360189         1.079082
 H        -2.881674         0.135225        -1.968361
 H        -4.262013         0.867340        -0.954961
 H        -2.720377         1.736226        -1.117557
 H        -1.459864        -2.208023         1.162329
 H        -3.070187        -1.623682         1.836996
 H        -3.753738        -3.718567        -0.280375
