19
Iteration:   207
 C         1.633510         0.474905        -0.195224
 C         0.211251         0.370620        -0.052522
 C        -0.950167         0.113157         0.080712
 C        -2.422515        -0.040613         0.164833
 C        -2.871025         0.711945        -1.071376
 O        -3.131317        -1.400902        -0.023225
 C        -2.526670        -2.467501         0.679943
 C        -3.488613        -3.687712         0.904504
 O        -3.134206        -4.809524         1.187697
 H         2.171785        -0.473307        -0.445862
 H         1.903546         1.127811        -1.069129
 H         2.113159         0.785651         0.791186
 H        -2.737974         0.510328         1.084339
 H        -2.149476         0.395387        -1.943071
 H        -3.908295         0.703730        -1.448372
 H        -2.551149         1.753403        -0.708347
 H        -1.539036        -2.801638         0.300244
 H        -2.343602        -2.171073         1.710519
 H        -4.611572        -3.393634         0.915732
