19
Iteration:  3167charge 0 multiplicity 1
 C         1.149059        -1.164275        -0.614886
 C        -0.275276        -0.738548        -0.298125
 C        -1.281050        -0.358967         0.247416
 C        -2.539263         0.037675         0.876267
 C        -3.075775         1.550204         0.700435
 O        -3.434656        -0.884997         0.379192
 C        -3.223891        -2.272409         0.782200
 C        -2.448366        -3.120199        -0.344324
 O        -1.678844        -4.019372        -0.086798
 H         1.606639        -0.253488        -1.015156
 H         1.608592        -1.428507         0.328736
 H         1.264721        -2.077500        -1.280433
 H        -2.491698        -0.106538         1.973621
 H        -3.563500         1.902194         1.618906
 H        -2.174931         2.180123         0.488367
 H        -3.700736         1.580729        -0.238179
 H        -2.527020        -2.435787         1.565034
 H        -4.184169        -2.843127         0.869270
 H        -2.520439        -2.446452        -1.267128
