19
Iteration:  1167
 C         1.539087        -0.300638        -0.025742
 C         0.107079         0.090976         0.271482
 C        -1.098919         0.288057         0.370201
 C        -2.633784         0.173119         0.359456
 C        -3.557105         0.958874        -0.704328
 O        -3.021495        -1.206000         0.096841
 C        -2.187522        -2.403663         0.402224
 C        -3.100717        -3.552851         0.387169
 O        -2.735169        -4.701637         0.614285
 H         2.299557         0.517556         0.061171
 H         1.845897        -1.049256         0.751319
 H         1.690701        -0.776296        -1.021345
 H        -2.877890         0.346464         1.425835
 H        -4.612311         1.082802        -0.330249
 H        -3.051899         1.903545        -0.955524
 H        -3.587254         0.267950        -1.518470
 H        -1.387456        -2.439648        -0.369991
 H        -1.730069        -2.324243         1.403068
 H        -4.150813        -3.265942         0.388574
