19
Iteration:  1709
 C         1.675685         0.209739        -0.203657
 C         0.277521         0.098992         0.045219
 C        -0.940607         0.106349         0.154251
 C        -2.479017        -0.030843         0.298513
 C        -3.324044         1.229825         0.083335
 O        -2.983371        -1.309060        -0.338209
 C        -2.459950        -2.430607         0.394278
 C        -3.285400        -3.795974         0.258719
 O        -3.129777        -4.843610         0.938286
 H         2.158299         1.018772         0.340031
 H         2.307012        -0.584116         0.060422
 H         1.861334         0.325622        -1.264059
 H        -2.641484        -0.315317         1.357132
 H        -3.872204         1.394255         1.012770
 H        -2.581510         2.152351         0.080678
 H        -3.911898         1.306187        -0.794412
 H        -1.414571        -2.651435         0.131009
 H        -2.451712        -2.229206         1.472951
 H        -4.075799        -3.856745        -0.444272
