19
Iteration:  1049charge 0 multiplicity 1
 C         1.689843         0.018379        -0.110395
 C         0.180288        -0.032181         0.088156
 C        -1.043189        -0.041278        -0.071106
 C        -2.430125         0.000863         0.202145
 C        -3.247070         1.051099        -0.564686
 O        -3.159893        -1.360877         0.085214
 C        -3.102939        -2.283998         1.114551
 C        -3.161166        -3.646272         0.336508
 O        -2.396167        -4.531486         0.568498
 H         2.169609        -0.943431         0.174752
 H         1.842173         0.354051        -1.178998
 H         2.218955         0.660481         0.585066
 H        -2.519346         0.302562         1.283665
 H        -4.356282         0.912152        -0.412238
 H        -3.078881         2.059954        -0.134803
 H        -3.065874         0.905806        -1.602176
 H        -2.111468        -2.237524         1.688349
 H        -4.008293        -2.276245         1.759383
 H        -3.661992        -3.485859        -0.639275
