19
Iteration:  1299
 C         1.650182         0.295383        -0.075248
 C         0.152767         0.128292        -0.001815
 C        -1.025086        -0.105215         0.265446
 C        -2.558843        -0.085470         0.360319
 C        -3.139245         1.155760        -0.292867
 O        -3.073416        -1.333051        -0.214244
 C        -2.581607        -2.420471         0.688817
 C        -3.224461        -3.684817         0.291053
 O        -2.896858        -4.788965         0.676641
 H         2.222712        -0.619069        -0.228216
 H         1.954996         0.991736        -0.857342
 H         1.936374         0.764864         0.845285
 H        -2.898245        -0.024079         1.416223
 H        -3.086208         1.279777        -1.404953
 H        -4.216075         1.338634        -0.014609
 H        -2.540924         1.837425         0.279784
 H        -1.526803        -2.584934         0.399082
 H        -2.453881        -2.209929         1.757419
 H        -4.012602        -3.461142        -0.498332
