19
Iteration:  2242charge 0 multiplicity 1
 C         1.124800        -1.232908        -0.841051
 C        -0.165422        -0.865823        -0.205542
 C        -1.215419        -0.207216         0.221200
 C        -2.626560         0.007997         0.765770
 C        -3.325194         1.395874         0.470783
 O        -3.419108        -0.950160        -0.014660
 C        -3.424496        -2.304558         0.507033
 C        -2.125469        -2.935134         0.085796
 O        -1.523066        -3.836068         0.740685
 H         1.801328        -1.283310         0.032215
 H         1.075229        -2.219702        -1.381536
 H         1.491143        -0.443882        -1.613115
 H        -2.715323        -0.292018         1.818235
 H        -4.185151         1.515924         1.197813
 H        -2.693018         2.277780         0.430223
 H        -3.720460         1.380289        -0.650963
 H        -3.691266        -2.466266         1.535390
 H        -4.181110        -2.636093        -0.201244
 H        -1.830370        -2.739712        -0.896210
