19
Iteration:   306
 C         1.638327         0.244739         0.133197
 C         0.201599         0.122002         0.004069
 C        -1.023812         0.117801        -0.043929
 C        -2.468425        -0.072046        -0.026249
 C        -3.466821         0.956455        -0.693123
 O        -2.811225        -1.520006        -0.422397
 C        -2.276638        -2.493510         0.434801
 C        -3.350958        -3.598369         0.708241
 O        -3.091444        -4.493354         1.484889
 H         1.946465         0.568897         1.167799
 H         2.135507        -0.736732        -0.026824
 H         2.002591         1.014360        -0.572363
 H        -2.775337        -0.146973         1.037967
 H        -3.618859         1.801043         0.100069
 H        -2.990591         1.332549        -1.624684
 H        -4.433715         0.416742        -0.943689
 H        -1.414835        -3.024836        -0.017338
 H        -1.962190        -2.103314         1.410239
 H        -4.339284        -3.457021         0.201728
