19
Iteration:  3958
 C         1.059038        -1.503776        -0.478044
 C        -0.071299        -0.763315         0.107900
 C        -1.106184        -0.317860         0.599539
 C        -2.594546        -0.056285         1.031894
 C        -3.043959         1.517897         0.929227
 O        -3.516513        -0.839679         0.388942
 C        -3.263055        -2.312624         0.569697
 C        -2.366618        -2.800266        -0.625026
 O        -1.794953        -3.858408        -0.735112
 H         1.880632        -0.862673        -0.787388
 H         1.524503        -2.082367         0.291149
 H         0.922846        -2.057040        -1.417044
 H        -2.704054        -0.122172         2.158857
 H        -2.186381         2.201819         1.049646
 H        -3.665918         1.792150         0.082991
 H        -3.712395         1.731305         1.839083
 H        -2.704918        -2.724409         1.492681
 H        -4.186568        -2.954225         0.588775
 H        -2.377319        -2.102864        -1.488033
