19
Iteration:  1186charge 0 multiplicity 1
 C         1.463398        -0.270298         0.116156
 C         0.071268         0.179075        -0.004733
 C        -1.119399         0.357658         0.321710
 C        -2.573374         0.121947         0.431336
 C        -3.360297         0.857134        -0.602948
 O        -3.024205        -1.257733         0.142365
 C        -2.162016        -2.346466         0.303031
 C        -3.152251        -3.562405         0.395236
 O        -2.794285        -4.703550         0.635991
 H         2.099975         0.522833        -0.230239
 H         1.697688        -0.595226         1.071969
 H         1.614543        -1.096465        -0.592732
 H        -2.989195         0.399078         1.438264
 H        -4.403703         0.686920        -0.361491
 H        -3.320832         1.940438        -0.526989
 H        -3.058331         0.473510        -1.635748
 H        -1.534690        -2.428646        -0.587292
 H        -1.614184        -2.378084         1.244503
 H        -4.253638        -3.396171         0.146637
