19
Iteration:    77charge 0 multiplicity 1
 C         1.698327         0.236953        -0.177906
 C         0.286128         0.359398        -0.089964
 C        -0.922518         0.257210        -0.203575
 C        -2.329841        -0.103637        -0.004505
 C        -3.142917         0.610575        -1.033611
 O        -2.858526        -1.544010        -0.092547
 C        -2.758342        -2.235386         1.188901
 C        -3.529415        -3.572605         1.014191
 O        -3.043700        -4.663725         1.009055
 H         2.244352         1.190594        -0.146117
 H         2.047431        -0.384981         0.670515
 H         2.086097        -0.312317        -1.049064
 H        -2.643222         0.203148         0.976443
 H        -4.218074         0.444157        -0.884826
 H        -2.866406         1.619076        -1.151783
 H        -2.878695         0.152832        -1.982255
 H        -1.706826        -2.218614         1.526697
 H        -3.430808        -1.752251         1.928236
 H        -4.664876        -3.473676         1.058820
