19
Iteration:   704charge 0 multiplicity 1
 C         1.511012         0.187360        -0.261728
 C         0.097380         0.244668         0.001784
 C        -1.077388         0.234477         0.318811
 C        -2.462314         0.022028         0.408037
 C        -3.058387         0.829740        -0.793558
 O        -2.962936        -1.229442         0.062249
 C        -2.678652        -2.384169         0.914844
 C        -3.107403        -3.762079         0.285537
 O        -2.946168        -4.830747         0.801744
 H         1.691928         0.097038        -1.371242
 H         2.098287         1.051377         0.159987
 H         1.899927        -0.734570         0.152246
 H        -2.833053         0.327461         1.385749
 H        -4.075700         1.163964        -0.489711
 H        -2.420191         1.695630        -0.868179
 H        -3.084076         0.099407        -1.552881
 H        -1.600744        -2.419230         1.072302
 H        -3.160544        -2.427012         1.900634
 H        -3.518081        -3.577482        -0.755893
