19
Iteration:  2501charge 0 multiplicity 1
 C         1.393149        -0.421387        -0.606533
 C         0.049104        -0.133188        -0.256986
 C        -1.093308         0.049605         0.230299
 C        -2.453298        -0.013319         0.599747
 C        -3.120685         1.284412         0.191122
 O        -3.236527        -1.166998         0.244364
 C        -2.887686        -2.313619         0.995405
 C        -2.518697        -3.464922         0.102532
 O        -2.794737        -4.616771         0.161803
 H         1.852975        -0.914009         0.202261
 H         1.397715        -1.244435        -1.323785
 H         2.030180         0.427626        -1.011346
 H        -2.446439        -0.004404         1.725567
 H        -4.147622         1.215497         0.511775
 H        -2.606943         2.109776         0.667747
 H        -3.113351         1.424010        -0.914751
 H        -2.061978        -1.958732         1.569889
 H        -3.751559        -2.557646         1.604871
 H        -1.935997        -3.027779        -0.682226
