19
Iteration:  4360charge 0 multiplicity 1
 C         1.632305        -0.463299         0.072103
 C         0.223728        -0.491986         0.379232
 C        -0.931450        -0.499861         0.737520
 C        -2.384200        -0.271375         1.129139
 C        -2.628076         1.209461         0.869416
 O        -3.303934        -0.971775         0.232604
 C        -3.434208        -2.371391         0.417631
 C        -2.985250        -2.947773        -0.942833
 O        -2.825953        -4.151764        -1.012309
 H         1.803994        -1.473767        -0.261977
 H         1.822064         0.216649        -0.794650
 H         2.226027        -0.090904         0.853235
 H        -2.638378        -0.538441         2.121420
 H        -2.305053         1.574874         1.817863
 H        -2.058396         1.552552        -0.023325
 H        -3.715730         1.312583         0.578911
 H        -2.633911        -2.530090         1.166726
 H        -4.398106        -3.003971         0.649100
 H        -2.800855        -2.213104        -1.694954
