19
Iteration:  3199charge 0 multiplicity 1
 C         1.022915        -1.301608        -0.608905
 C        -0.079323        -0.475369        -0.104092
 C        -1.154172        -0.085313         0.300150
 C        -2.526359        -0.020790         0.833250
 C        -3.093605         1.353324         0.653688
 O        -3.515377        -0.913638         0.405306
 C        -3.113527        -2.254668         0.687155
 C        -2.441211        -3.057980        -0.395098
 O        -1.786780        -4.074276        -0.085990
 H         1.247015        -1.078251        -1.703256
 H         1.869701        -1.092662         0.016760
 H         0.601391        -2.349050        -0.710707
 H        -2.388910        -0.111850         1.921170
 H        -3.224501         1.888987         1.605522
 H        -2.524406         1.916242        -0.104330
 H        -4.148777         1.240982         0.254028
 H        -2.452197        -2.224102         1.545906
 H        -3.949279        -2.880753         1.046165
 H        -2.403380        -2.582338        -1.460086
