19
Iteration:  3025
 C         1.041598        -0.904496        -0.889765
 C        -0.116963        -0.654017         0.014444
 C        -1.257792        -0.509192         0.474335
 C        -2.461321         0.038277         0.984916
 C        -2.827037         1.395581         0.470579
 O        -3.596789        -0.905010         0.241071
 C        -3.261761        -2.230043         0.729371
 C        -2.437788        -3.098426        -0.230301
 O        -1.756694        -4.099118         0.021320
 H         1.468960        -1.862834        -0.795144
 H         0.598497        -0.692766        -1.803649
 H         1.715733        -0.046263        -0.618377
 H        -2.525938        -0.190487         2.038667
 H        -3.749275         1.651608         1.047016
 H        -2.120186         2.181131         0.556447
 H        -3.084957         1.176783        -0.630483
 H        -2.675281        -2.227210         1.664523
 H        -4.237883        -2.696026         0.999262
 H        -2.713495        -2.880470        -1.376970
