19
Iteration:  3249charge 0 multiplicity 1
 C         1.001277        -1.293392        -0.657431
 C        -0.215534        -0.712840        -0.021233
 C        -1.103457         0.022444         0.488679
 C        -2.477161         0.109052         0.944168
 C        -3.241262         1.398299         0.511942
 O        -3.384948        -0.897570         0.369778
 C        -3.184036        -2.229813         0.777654
 C        -2.212323        -3.047250        -0.332380
 O        -1.868474        -4.203122        -0.312388
 H         0.729011        -1.910601        -1.514609
 H         1.658028        -0.400531        -0.874134
 H         1.363753        -2.014953         0.019238
 H        -2.455947         0.008755         2.079493
 H        -2.572637         2.271675         0.588134
 H        -3.569703         1.353994        -0.492874
 H        -4.040868         1.656742         1.250108
 H        -2.631712        -2.346481         1.813475
 H        -4.146498        -2.823882         0.865498
 H        -1.917738        -2.336754        -1.279540
