19
Iteration:  2190
 C         0.877127        -1.503690        -0.644390
 C        -0.211924        -0.488495        -0.190416
 C        -1.338561        -0.183451         0.056669
 C        -2.693455         0.025432         0.689728
 C        -3.158369         1.456061         0.433099
 O        -3.566029        -1.030665         0.083982
 C        -3.288459        -2.335986         0.533245
 C        -2.079688        -3.029236         0.049003
 O        -1.284410        -3.741486         0.657464
 H         0.624093        -2.547115        -0.321885
 H         0.735722        -1.550363        -1.703461
 H         1.829344        -1.143496        -0.377503
 H        -2.706027        -0.197629         1.782574
 H        -3.949100         1.929805         0.999542
 H        -2.242442         2.013334         0.677641
 H        -3.307224         1.630075        -0.653081
 H        -3.286031        -2.518121         1.647636
 H        -4.190362        -2.853383         0.058590
 H        -1.997644        -2.875456        -1.165853
