19
Iteration:   976
 C         1.518816         0.064627        -0.269750
 C         0.078761        -0.019588        -0.031942
 C        -1.110804        -0.112146         0.275666
 C        -2.593123         0.045035         0.325960
 C        -2.856361         1.214828        -0.656379
 O        -3.362729        -1.202356         0.099263
 C        -3.027343        -2.403837         0.907426
 C        -2.744786        -3.709951         0.205923
 O        -2.557624        -4.715983         0.860335
 H         1.604758        -0.012361        -1.373292
 H         1.962832         1.030148         0.048639
 H         2.086986        -0.782661         0.051871
 H        -2.933433         0.444897         1.287627
 H        -3.967141         1.344872        -0.976095
 H        -2.680678         2.205640        -0.121785
 H        -2.217206         1.050649        -1.530857
 H        -2.259636        -2.372646         1.656856
 H        -3.984637        -2.653591         1.368979
 H        -2.923039        -3.737930        -0.904428
