19
Iteration:  4670
 C         1.796010        -0.582470         0.252283
 C         0.298712        -0.466187         0.542447
 C        -0.872689        -0.225731         0.880233
 C        -2.349000        -0.199362         1.112424
 C        -3.072905         1.261319         0.943293
 O        -3.152303        -1.076760         0.293955
 C        -2.501640        -2.442287         0.232000
 C        -3.307799        -3.030108        -0.997562
 O        -3.434568        -4.188875        -1.320794
 H         2.468135        -0.955877         1.028663
 H         2.098126        -1.155570        -0.561147
 H         2.080328         0.439711         0.057602
 H        -2.411428        -0.580206         2.103526
 H        -2.843728         2.106637         1.646122
 H        -2.836389         1.703901         0.028428
 H        -4.169909         1.117530         0.913388
 H        -1.377999        -2.463209         0.014321
 H        -2.789038        -2.773233         1.187772
 H        -3.594871        -2.181823        -1.692971
