19
Iteration:  3359
 C         1.395859        -0.859799        -0.527793
 C         0.001057        -0.692036        -0.032307
 C        -1.073459        -0.446161         0.486569
 C        -2.406834        -0.018254         0.913242
 C        -3.130752         1.290991         0.326891
 O        -3.494107        -0.916099         0.607254
 C        -3.316970        -2.379684         0.825214
 C        -2.733527        -3.028187        -0.467343
 O        -1.929736        -3.922861        -0.358531
 H         2.119960        -1.049992         0.284104
 H         1.461054        -1.800803        -1.186211
 H         1.832889        -0.116615        -1.185295
 H        -2.264473         0.136608         2.007996
 H        -2.556664         1.810993        -0.439200
 H        -3.911500         0.795282        -0.197667
 H        -3.661263         1.896396         1.125791
 H        -2.605926        -2.581420         1.650250
 H        -4.344194        -2.696187         1.078905
 H        -2.949392        -2.567159        -1.493579
