19
Iteration:  3693
 C         1.393342        -0.736970        -0.315229
 C         0.004464        -0.689677        -0.046581
 C        -1.174082        -0.496120         0.169410
 C        -2.428129        -0.145017         0.834843
 C        -2.701389         1.358632         0.821449
 O        -3.687483        -0.897289         0.503683
 C        -3.457914        -2.290614         0.610438
 C        -2.606604        -3.025209        -0.575232
 O        -2.038997        -4.065252        -0.349945
 H         1.610919         0.364298        -0.615604
 H         2.055781        -1.020051         0.510170
 H         1.343906        -1.378381        -1.260745
 H        -2.129662        -0.380239         1.921655
 H        -1.847933         2.000047         1.056760
 H        -3.060589         1.611606        -0.197527
 H        -3.531952         1.404396         1.555894
 H        -3.069662        -2.729850         1.545421
 H        -4.395685        -2.807033         0.530754
 H        -2.557815        -2.564802        -1.591561
