19
Iteration:  4199
 C         1.237417        -1.269191        -0.109472
 C         0.064367        -0.587446         0.368243
 C        -1.082639        -0.150227         0.403566
 C        -2.330432        -0.031121         1.139970
 C        -3.078442         1.329947         0.911697
 O        -3.318586        -0.922406         0.556362
 C        -3.170632        -2.307289         0.494323
 C        -2.443295        -2.839533        -0.824441
 O        -2.521820        -4.050056        -1.108670
 H         2.176694        -0.849522         0.343093
 H         1.225060        -2.403495         0.076993
 H         1.454856        -1.147763        -1.227574
 H        -2.306561        -0.431232         2.072262
 H        -2.920505         2.151207         1.559050
 H        -2.705848         1.819693        -0.029857
 H        -4.154708         1.138547         0.651172
 H        -2.624261        -2.678876         1.351575
 H        -4.100944        -2.874037         0.679888
 H        -1.803979        -2.094171        -1.357295
