19
Iteration:    32
 C         1.575831         0.204906        -0.138218
 C         0.189434        -0.129909        -0.200469
 C        -0.992156         0.027977         0.014412
 C        -2.439435        -0.032810         0.037155
 C        -3.252113         0.670995        -1.090880
 O        -2.716950        -1.458205        -0.107777
 C        -2.648304        -2.192017         1.095389
 C        -3.315436        -3.400453         0.802475
 O        -3.040178        -4.523936         1.228972
 H         1.754315         0.880913         0.679987
 H         2.356558        -0.599711        -0.178226
 H         1.875205         0.843293        -1.061506
 H        -2.766081         0.377919         0.977713
 H        -3.784612        -0.078521        -1.612164
 H        -3.967202         1.332547        -0.555539
 H        -2.718980         1.359990        -1.778490
 H        -1.597642        -2.414258         1.423645
 H        -3.218156        -1.654151         1.869687
 H        -4.079832        -3.349035         0.001909
