19
Iteration:  2657charge 0 multiplicity 1
 C         1.452459        -0.295093        -0.498377
 C         0.023974        -0.255353        -0.243305
 C        -1.059723        -0.314872         0.272422
 C        -2.399556         0.131768         0.674621
 C        -3.253688         1.082469        -0.170128
 O        -3.183150        -1.098916         0.816436
 C        -2.642021        -2.355158         1.079458
 C        -2.616263        -3.309867        -0.140360
 O        -2.959735        -4.467566        -0.141063
 H         1.452056        -0.439014        -1.585371
 H         1.933881         0.629992        -0.068040
 H         1.842819        -1.178996        -0.011256
 H        -2.253569         0.592124         1.676481
 H        -4.252068         0.925962         0.329999
 H        -2.937247         2.126826        -0.035413
 H        -3.244314         0.780134        -1.243994
 H        -1.693799        -2.226090         1.512163
 H        -3.229977        -2.824287         1.900632
 H        -2.256760        -2.747040        -1.046930
