19
Iteration:  4240
 C         1.419779        -1.167290        -0.092056
 C         0.029250        -0.574500         0.174434
 C        -0.998067        -0.215710         0.723826
 C        -2.493974        -0.062812         1.058651
 C        -2.992642         1.439702         1.014079
 O        -3.371571        -0.944496         0.264295
 C        -3.088568        -2.340439         0.555310
 C        -2.502598        -2.932021        -0.758951
 O        -2.646540        -4.084708        -1.154245
 H         2.049221        -0.288587        -0.326608
 H         1.664250        -1.583452         0.937625
 H         1.487263        -1.965611        -0.789954
 H        -2.460556        -0.182257         2.231656
 H        -2.468690         2.070118         1.683252
 H        -3.146656         1.747167        -0.013237
 H        -4.079159         1.388249         1.283087
 H        -2.324070        -2.571963         1.363831
 H        -4.031716        -2.790434         0.945117
 H        -1.736517        -2.313520        -1.308391
