19
Iteration:   507charge 0 multiplicity 1
 C         1.721991         0.541294        -0.007741
 C         0.231490         0.184298         0.186621
 C        -1.004375         0.180563         0.071827
 C        -2.492853        -0.081125         0.203364
 C        -3.295764         0.795773        -0.787693
 O        -2.942781        -1.435966        -0.156848
 C        -2.315632        -2.528671         0.591531
 C        -3.234605        -3.709056         0.449202
 O        -3.327551        -4.700370         1.189651
 H         2.391428        -0.311975        -0.059531
 H         1.822770         1.099795        -0.940033
 H         1.992875         1.241853         0.693372
 H        -2.853833         0.148422         1.243899
 H        -4.076183         1.304893        -0.299578
 H        -2.528250         1.458535        -1.202261
 H        -3.646073         0.215289        -1.673756
 H        -1.307139        -2.905265         0.208685
 H        -2.089920        -2.200477         1.569853
 H        -3.573664        -3.697456        -0.601813
