19
Iteration:  2191
 C         0.876427        -1.499119        -0.644570
 C        -0.202708        -0.487914        -0.198844
 C        -1.342361        -0.189420         0.061695
 C        -2.692556         0.021842         0.702496
 C        -3.168643         1.452715         0.429943
 O        -3.561067        -1.026393         0.083214
 C        -3.283060        -2.333061         0.524551
 C        -2.075708        -3.030111         0.044606
 O        -1.297386        -3.736954         0.661924
 H         0.635071        -2.545257        -0.277089
 H         0.738482        -1.558026        -1.710851
 H         1.839711        -1.151359        -0.413382
 H        -2.684494        -0.213058         1.803884
 H        -3.942625         1.909534         0.993221
 H        -2.230737         2.025413         0.637011
 H        -3.324691         1.607719        -0.612641
 H        -3.261641        -2.517468         1.642287
 H        -4.193027        -2.832006         0.052946
 H        -1.994765        -2.909625        -1.145679
