19
Iteration:  2664charge 0 multiplicity 1
 C         1.510627        -0.305415        -0.531207
 C         0.057580        -0.195171        -0.204128
 C        -1.096157        -0.341533         0.242281
 C        -2.448157         0.071365         0.694850
 C        -3.246239         1.066463        -0.169842
 O        -3.196905        -1.122041         0.797418
 C        -2.640039        -2.376295         1.111566
 C        -2.640284        -3.234038        -0.119375
 O        -2.945330        -4.440953        -0.136862
 H         1.751465        -0.484704        -1.560398
 H         1.967419         0.639936        -0.352598
 H         2.006035        -1.137386         0.041662
 H        -2.406391         0.610635         1.658615
 H        -4.220467         1.123368         0.260098
 H        -2.816896         2.103623        -0.121871
 H        -3.381198         0.812058        -1.176227
 H        -1.628025        -2.421607         1.650744
 H        -3.304309        -2.942725         1.764638
 H        -2.523379        -2.736596        -1.094786
