19
Iteration:  3864
 C         1.031063        -1.245109        -0.550173
 C        -0.161079        -0.688378         0.054288
 C        -1.203419        -0.213027         0.488801
 C        -2.552405        -0.011506         1.091317
 C        -2.938090         1.472669         1.035367
 O        -3.402825        -0.866361         0.266617
 C        -3.154135        -2.280227         0.529653
 C        -2.282310        -2.933509        -0.571209
 O        -2.012337        -4.109749        -0.576227
 H         1.481525        -1.991671         0.101741
 H         0.715462        -1.876966        -1.400995
 H         1.793786        -0.509424        -0.666235
 H        -2.718974        -0.445247         2.101844
 H        -2.810960         1.840373         2.041703
 H        -2.344730         2.022990         0.324300
 H        -3.988529         1.602118         0.723589
 H        -2.819919        -2.387304         1.545092
 H        -4.141830        -2.714452         0.647828
 H        -2.233799        -2.325141        -1.507565
