19
Iteration:  4733
 C         1.866002        -0.341350         0.547376
 C         0.385604        -0.228636         0.417441
 C        -0.822733        -0.353638         0.663460
 C        -2.285934        -0.303000         1.030505
 C        -2.700767         1.194413         1.123452
 O        -3.271819        -0.989067         0.211519
 C        -2.830519        -2.375821         0.132124
 C        -3.624527        -3.191084        -0.973459
 O        -3.297391        -4.293517        -1.382099
 H         2.163224         0.623202         1.063277
 H         2.175544        -1.361992         1.172971
 H         2.186660        -0.405593        -0.503321
 H        -2.242357        -0.783343         2.131127
 H        -1.876933         1.771466         1.627811
 H        -3.091204         1.493061         0.177737
 H        -3.504756         1.142973         1.852064
 H        -1.739198        -2.532076         0.091182
 H        -3.178603        -2.828829         1.128085
 H        -4.507024        -2.613290        -1.444992
