19
Iteration:  2453
 C         1.460248        -0.264692        -0.645444
 C         0.121848        -0.408615        -0.188869
 C        -1.068382        -0.230568         0.025959
 C        -2.356602         0.005600         0.598097
 C        -3.126071         1.225383         0.270024
 O        -3.372977        -0.977405         0.250228
 C        -3.211806        -2.290874         0.873512
 C        -2.548239        -3.397303         0.006597
 O        -2.531173        -4.589472         0.404472
 H         2.130440        -1.227982        -0.695558
 H         1.533149         0.083014        -1.698466
 H         1.889229         0.445638         0.049006
 H        -2.185409        -0.041358         1.709492
 H        -4.154825         0.902625         0.579109
 H        -2.785825         2.045160         0.958479
 H        -3.072606         1.595795        -0.761881
 H        -2.646516        -2.071446         1.793293
 H        -4.262149        -2.451442         1.136453
 H        -2.083410        -3.098321        -0.902946
