19
Iteration:  4490charge 0 multiplicity 1
 C         1.705439        -0.569663         0.177052
 C         0.285522        -0.406932         0.500235
 C        -0.864411        -0.012068         0.575384
 C        -2.255510        -0.224078         1.033925
 C        -2.866126         1.171014         1.008432
 O        -3.234266        -1.000723         0.237720
 C        -3.165652        -2.401234         0.368512
 C        -3.046392        -3.076105        -0.972812
 O        -3.138799        -4.294898        -1.120641
 H         2.233076         0.393661         0.240758
 H         2.129175        -1.379183         0.867207
 H         1.853144        -0.929519        -0.865913
 H        -2.328548        -0.677324         2.098915
 H        -2.225698         1.594197         1.808249
 H        -2.601287         1.673624         0.004830
 H        -3.932616         1.172924         1.395471
 H        -2.420239        -2.757891         1.140319
 H        -4.021108        -2.919809         0.815393
 H        -3.099277        -2.412062        -1.794343
