19
Iteration:  2995charge 0 multiplicity 1
 C         1.085014        -1.009915        -0.874047
 C        -0.068842        -0.487567        -0.034918
 C        -1.208089        -0.237436         0.430652
 C        -2.587826        -0.056302         0.790900
 C        -2.919356         1.433643         0.491503
 O        -3.485912        -0.991747         0.390614
 C        -3.253123        -2.349351         0.732494
 C        -2.345765        -3.055213        -0.218492
 O        -1.922012        -4.159915         0.031254
 H         1.032427        -2.060315        -1.143703
 H         1.147704        -0.265176        -1.725417
 H         2.084075        -0.848514        -0.324351
 H        -2.546897        -0.100043         1.910846
 H        -3.587484         1.742197         1.286152
 H        -2.001914         1.978063         0.586644
 H        -3.428249         1.677149        -0.455342
 H        -2.794427        -2.506687         1.727276
 H        -4.249361        -2.704952         0.645433
 H        -2.390529        -2.541706        -1.151618
