19
Iteration:   184charge 0 multiplicity 1
 C         1.662143         0.519506        -0.282768
 C         0.212829         0.279181         0.031865
 C        -0.950727        -0.113131         0.249672
 C        -2.436628        -0.123909         0.151417
 C        -2.964805         0.653414        -1.139403
 O        -3.045597        -1.434057        -0.006527
 C        -2.512581        -2.381386         0.858759
 C        -3.501219        -3.510244         0.867068
 O        -3.115758        -4.651511         1.057410
 H         2.099657        -0.157188        -1.020265
 H         1.788794         1.509725        -0.787642
 H         2.325543         0.395388         0.662111
 H        -2.764929         0.420538         1.049748
 H        -2.170298         0.808953        -1.943169
 H        -3.552424        -0.183038        -1.620737
 H        -3.678119         1.543598        -0.939255
 H        -1.593538        -2.763941         0.388838
 H        -2.259112        -2.092579         1.874165
 H        -4.587024        -3.222993         0.636574
