19
Iteration:   176charge 0 multiplicity 1
 C         1.599250         0.522277        -0.291809
 C         0.217544         0.195350         0.063207
 C        -0.924072        -0.188082         0.242685
 C        -2.417409        -0.034306         0.133647
 C        -3.033768         0.591459        -1.181370
 O        -2.982580        -1.420225        -0.001499
 C        -2.460785        -2.371768         0.932234
 C        -3.512266        -3.483672         0.866395
 O        -3.130679        -4.622048         1.012968
 H         2.013323        -0.078414        -1.165425
 H         1.668818         1.615517        -0.497435
 H         2.287086         0.369817         0.536654
 H        -2.932074         0.422645         1.081329
 H        -2.203697         1.129828        -1.733992
 H        -3.533525        -0.075532        -1.819312
 H        -3.720260         1.350354        -0.886944
 H        -1.523714        -2.892601         0.625673
 H        -2.211976        -1.853072         1.915293
 H        -4.516069        -3.318958         0.531983
