19
Iteration:  4266
 C         1.347639        -0.964140        -0.057311
 C         0.047800        -0.595601         0.404351
 C        -1.113507        -0.393951         0.643993
 C        -2.430414        -0.148762         1.104262
 C        -2.903164         1.343379         0.994653
 O        -3.325025        -0.878112         0.227232
 C        -3.033509        -2.233248         0.448514
 C        -2.471577        -2.953656        -0.845619
 O        -2.767155        -4.102645        -1.052493
 H         1.530718        -0.248013        -0.883954
 H         2.089670        -0.877092         0.731548
 H         1.371061        -2.048471        -0.437811
 H        -2.407432        -0.463464         2.136769
 H        -2.114774         2.115525         1.210906
 H        -3.278362         1.416082        -0.044919
 H        -3.819748         1.508779         1.534289
 H        -2.326255        -2.460779         1.217314
 H        -3.887316        -2.711702         0.832944
 H        -1.863636        -2.383059        -1.526656
