19
Iteration:  1253
 C         1.701141         0.185915         0.138535
 C         0.160339        -0.081729         0.159240
 C        -1.039297        -0.042603        -0.056930
 C        -2.474455         0.043192         0.296803
 C        -3.347547         1.071517        -0.361237
 O        -3.208266        -1.193421         0.144216
 C        -2.413824        -2.352133         0.365228
 C        -3.237390        -3.717356         0.247211
 O        -2.799936        -4.728196         0.761167
 H         1.947101        -0.180712        -0.856785
 H         1.927863         1.189092         0.191114
 H         2.234153        -0.356618         0.897450
 H        -2.467757         0.252789         1.385538
 H        -4.084989         0.459821        -0.944460
 H        -4.062535         1.652999         0.253622
 H        -2.860111         1.771395        -1.007350
 H        -1.807090        -2.494731        -0.552227
 H        -1.692206        -2.362747         1.187940
 H        -4.049830        -3.693906        -0.567444
