19
Iteration:   547charge 0 multiplicity 1
 C         1.643436         0.674718         0.030316
 C         0.250684         0.231020        -0.062828
 C        -0.916326        -0.128711        -0.061309
 C        -2.448971        -0.175478         0.149707
 C        -3.209392         0.740284        -0.790490
 O        -2.888745        -1.434942         0.032927
 C        -2.523922        -2.486083         0.947960
 C        -3.326201        -3.558688         0.459057
 O        -3.201729        -4.667395         0.907213
 H         2.188684         0.208546         0.929551
 H         2.237439         0.387808        -0.888224
 H         1.794539         1.819529         0.204885
 H        -2.523849         0.151299         1.185352
 H        -4.271043         0.732991        -0.421283
 H        -2.759162         1.760327        -0.950258
 H        -3.251699         0.292020        -1.838498
 H        -1.523432        -2.880453         0.786264
 H        -2.771512        -2.220213         2.050939
 H        -4.163437        -3.412975        -0.235546
