19
Iteration:  4497charge 0 multiplicity 1
 C         1.642920        -0.552770         0.145268
 C         0.290447        -0.406299         0.508862
 C        -0.869316        -0.063038         0.648573
 C        -2.228291        -0.217747         1.021748
 C        -2.860629         1.191707         1.014071
 O        -3.220554        -1.017537         0.215374
 C        -3.140941        -2.407119         0.414677
 C        -3.008156        -3.098836        -0.997866
 O        -3.173528        -4.284127        -1.131492
 H         2.376678         0.252453         0.052246
 H         2.028921        -1.150408         0.970932
 H         1.810413        -1.217924        -0.736871
 H        -2.046431        -0.631323         1.979793
 H        -2.582898         1.781444         1.906053
 H        -2.777253         1.733722         0.137311
 H        -3.937170         1.323203         1.169222
 H        -2.205691        -2.466127         1.104017
 H        -4.034664        -2.987736         0.811024
 H        -3.106879        -2.365267        -1.925737
