19
Iteration:  3056
 C         1.081816        -0.861756        -0.863661
 C        -0.219554        -0.822122        -0.172611
 C        -1.093281        -0.387482         0.563295
 C        -2.482304         0.008854         0.945794
 C        -2.812093         1.394001         0.407901
 O        -3.511768        -0.992156         0.421313
 C        -3.420498        -2.387701         0.711299
 C        -2.522428        -3.049019        -0.310263
 O        -1.746783        -3.895879         0.055098
 H         1.912375        -1.436800        -0.340766
 H         1.008453        -1.353497        -1.828930
 H         1.314007         0.218465        -0.949397
 H        -2.623075        -0.045123         2.050751
 H        -3.917108         1.587401         0.508871
 H        -2.320165         2.162511         1.003774
 H        -2.453320         1.507973        -0.672486
 H        -2.981167        -2.635402         1.697947
 H        -4.464746        -2.906027         0.783419
 H        -2.550992        -2.825924        -1.330010
