19
Iteration:  2748charge 0 multiplicity 1
 C         1.406541        -0.265454        -0.610305
 C         0.019469        -0.456570        -0.218188
 C        -1.013113        -0.160213         0.282864
 C        -2.386810         0.024817         0.749852
 C        -3.061529         1.076188        -0.078719
 O        -3.320226        -1.076193         0.895167
 C        -2.895790        -2.364953         1.035019
 C        -2.791409        -3.258204        -0.282247
 O        -2.631834        -4.436485        -0.090945
 H         2.060910        -1.122773        -0.191182
 H         1.574427        -0.047136        -1.683841
 H         1.663330         0.711263        -0.200001
 H        -2.402505         0.475087         1.755249
 H        -4.006888         1.357387         0.413207
 H        -2.359316         1.965142        -0.158210
 H        -3.133565         0.637439        -1.113727
 H        -1.884532        -2.431243         1.366764
 H        -3.638191        -2.916343         1.621749
 H        -2.826936        -2.791282        -1.282419
