19
Iteration:  3836charge 0 multiplicity 1
 C         1.146831        -1.086324        -0.537138
 C        -0.136356        -0.714733        -0.039427
 C        -1.101977        -0.330361         0.594012
 C        -2.489189        -0.119705         1.025684
 C        -2.900344         1.366725         0.897346
 O        -3.468298        -0.899952         0.315967
 C        -3.334702        -2.294310         0.524435
 C        -2.388950        -2.845595        -0.537955
 O        -2.028005        -4.016269        -0.505988
 H         1.526229        -2.130470        -0.371151
 H         1.158336        -1.056045        -1.646200
 H         1.906156        -0.398245        -0.044867
 H        -2.747018        -0.434572         2.029309
 H        -2.709689         1.775064         1.937930
 H        -2.241769         1.953090         0.171135
 H        -3.960591         1.513353         0.794854
 H        -2.910385        -2.494939         1.572427
 H        -4.300773        -2.785870         0.781271
 H        -2.164061        -2.184670        -1.411321
