19
Iteration:  1588
 C         1.630114         0.653958        -0.183302
 C         0.278408         0.371611         0.116063
 C        -0.907225        -0.008369         0.142931
 C        -2.341549        -0.257549         0.479340
 C        -3.189467         0.915451        -0.144573
 O        -2.929525        -1.504152         0.015741
 C        -2.219639        -2.757005         0.138543
 C        -3.370784        -3.718016         0.097028
 O        -3.556018        -4.509595         1.013701
 H         2.169423        -0.241048        -0.499290
 H         1.778610         1.347501        -0.970814
 H         2.238612         1.074947         0.643304
 H        -2.499230        -0.145085         1.558438
 H        -2.605013         1.478433        -0.896715
 H        -4.251395         0.618921        -0.471155
 H        -3.259626         1.720126         0.695652
 H        -1.477579        -2.936105        -0.663304
 H        -1.634513        -2.677871         1.070544
 H        -4.123799        -3.651540        -0.746615
