19
Iteration:  3846
 C         1.078753        -1.152009        -0.525696
 C        -0.165740        -0.710363        -0.009795
 C        -1.117584        -0.274108         0.580744
 C        -2.510634        -0.086138         1.010290
 C        -2.881556         1.408435         0.972561
 O        -3.445607        -0.954129         0.254657
 C        -3.249111        -2.307613         0.545817
 C        -2.419533        -2.874946        -0.547133
 O        -2.031386        -4.008796        -0.508812
 H         1.356427        -2.128382        -0.004934
 H         0.987983        -1.114781        -1.625916
 H         1.760484        -0.281101        -0.353187
 H        -2.355399        -0.385505         2.094293
 H        -2.693422         1.812798         2.009525
 H        -2.306820         2.052255         0.194998
 H        -3.890591         1.484715         0.616602
 H        -2.558977        -2.434159         1.473593
 H        -4.303161        -2.782435         0.434324
 H        -2.023080        -2.053773        -1.197478
