19
Iteration:   852charge 0 multiplicity 1
 C         1.418151        -0.387450        -0.035753
 C         0.088558         0.344053        -0.004288
 C        -1.124071         0.289768        -0.072676
 C        -2.501089         0.098733         0.159976
 C        -3.528950         1.089114        -0.586958
 O        -2.970818        -1.365717         0.131320
 C        -2.537987        -2.332932         1.054361
 C        -2.469120        -3.660270         0.270017
 O        -3.015954        -4.655555         0.709050
 H         1.856809        -0.488448         0.944865
 H         1.215979        -1.388538        -0.423629
 H         2.157388         0.010747        -0.707139
 H        -2.410572         0.387433         1.200958
 H        -4.362571         1.350449         0.063031
 H        -2.898975         1.820248        -1.083579
 H        -3.909511         0.489082        -1.511000
 H        -1.624853        -2.182347         1.549251
 H        -3.358223        -2.524613         1.705691
 H        -1.879610        -3.637282        -0.669339
