19
Iteration:  2394charge 0 multiplicity 1
 C         1.016320         0.429547         0.580338
 C        -0.283940         0.300507         0.057259
 C        -1.486233         0.114605        -0.120585
 C        -2.900356        -0.197402        -0.097288
 O        -3.679212         1.048968        -0.456073
 C        -3.363913        -0.844822         1.377064
 C        -4.762798        -0.467727         1.728029
 C        -4.868379         0.975452         2.168534
 O        -4.121050         1.360620         3.061237
 H         1.448946         1.424241         0.279510
 H         0.909019         0.416470         1.741819
 H         1.788823        -0.375480         0.301123
 H        -3.243159        -1.037487        -0.700676
 H        -3.255099         1.732660         0.064848
 H        -3.124553        -1.894993         1.077748
 H        -2.682188        -0.454136         2.135297
 H        -5.405904        -0.718782         0.871144
 H        -5.087955        -1.072835         2.654131
 H        -5.742220         1.488145         1.728372
