19
Iteration:  3883charge 0 multiplicity 1
 C         1.194296         0.087467         0.376241
 C        -0.168314         0.278596         0.503994
 C        -1.405040         0.218332         0.441595
 C        -2.883988         0.246134         0.395076
 O        -3.441747        -0.511860        -0.761616
 C        -3.757527         1.491217         0.618487
 C        -5.080682         0.990226         1.233255
 C        -4.986272         0.432869         2.703614
 O        -3.951307        -0.022861         3.166813
 H         1.710773         0.916746        -0.096141
 H         1.654614        -0.147535         1.404630
 H         1.313559        -0.819461        -0.209549
 H        -3.048329        -0.322087         1.360532
 H        -2.921888        -0.094173        -1.484912
 H        -3.286218         2.171385         1.329032
 H        -3.892881         2.024884        -0.362670
 H        -5.841222         1.643453         0.792327
 H        -5.379155        -0.015452         0.713867
 H        -5.945338        -0.041816         2.982017
