19
Iteration:  4266
 C         1.305257         0.368900        -0.607725
 C        -0.140906         0.107450        -0.161318
 C        -1.141040         0.237430         0.562387
 C        -2.470566        -0.004830         1.082591
 O        -3.415716        -0.379078        -0.082105
 C        -3.148357         1.466865         1.379538
 C        -4.762965         1.442562         1.337862
 C        -5.404854         0.238644         2.004922
 O        -5.130131        -0.412257         3.037289
 H         1.717944         0.817165         0.325396
 H         1.952247        -0.459723        -0.860025
 H         1.424918         1.270802        -1.202019
 H        -2.683409        -0.655666         1.876945
 H        -3.056797        -0.878325        -0.822142
 H        -2.905392         2.053025         2.277098
 H        -2.903547         2.058135         0.475116
 H        -5.137913         2.392553         1.820497
 H        -5.219441         1.408297         0.394759
 H        -6.304021         0.046273         1.444860
