19
Iteration:   752charge 0 multiplicity 1
 C         1.290602        -0.538940         0.133163
 C        -0.031778        -0.003238         0.065760
 C        -1.226233         0.166970        -0.062993
 C        -2.651658         0.324731        -0.211436
 O        -2.996484         1.607402        -0.602389
 C        -3.274657         0.174340         1.241787
 C        -4.842258         0.340776         1.228290
 C        -5.226506         0.775306         2.867351
 O        -5.494238        -0.027575         3.724052
 H         1.658936        -0.508660         1.215384
 H         1.370664        -1.547522        -0.232290
 H         2.037849         0.034947        -0.513163
 H        -3.107139        -0.457386        -0.904108
 H        -2.191489         1.850917        -1.054144
 H        -2.939693        -0.754012         1.568032
 H        -2.697829         0.841808         1.955689
 H        -5.309058         1.083197         0.730006
 H        -5.275984        -0.663278         1.091303
 H        -5.164698         1.719494         3.238976
