19
Iteration:  2182
 C         1.389950         0.301331        -0.341852
 C        -0.001919         0.203518         0.100882
 C        -1.181692         0.008238         0.315193
 C        -2.662729        -0.111033         0.269698
 O        -3.126040         1.109797        -0.384206
 C        -3.426315        -0.646505         1.584682
 C        -4.972606        -0.339985         1.543192
 C        -5.591542         0.643629         2.492526
 O        -4.862586         1.503197         2.945662
 H         1.579439         0.613518        -1.354605
 H         2.049559         0.949430         0.342948
 H         1.794465        -0.687722        -0.226932
 H        -2.861356        -0.914723        -0.442223
 H        -2.937474         1.736104         0.327322
 H        -3.202888        -1.723035         1.629573
 H        -3.065644         0.013525         2.365751
 H        -5.089078        -0.164159         0.466259
 H        -5.416344        -1.304024         1.725085
 H        -6.667343         0.750703         2.785048
