19
Iteration:  2230charge 0 multiplicity 1
 C         1.261948         0.227290         0.016527
 C        -0.105749         0.149328         0.253073
 C        -1.322818         0.123416         0.158276
 C        -2.723089        -0.069173         0.114327
 O        -3.542554         1.151112        -0.257627
 C        -3.279722        -0.642721         1.482441
 C        -4.829928        -0.502690         1.599263
 C        -5.273245         0.675409         2.333754
 O        -4.555426         1.538487         2.769868
 H         1.393505         0.832269        -0.901278
 H         1.801968         0.828273         0.740561
 H         1.890146        -0.683914        -0.159125
 H        -3.002285        -0.645188        -0.764922
 H        -3.415507         1.901084         0.390169
 H        -3.147360        -1.705625         1.345160
 H        -2.818196        -0.157403         2.335665
 H        -5.253134        -0.443110         0.575053
 H        -5.241406        -1.408065         2.204280
 H        -6.364971         0.707065         2.713238
