19
Iteration:  1353
 C         1.303699         0.020416         0.315963
 C        -0.024534        -0.035450        -0.193037
 C        -1.263524        -0.041371        -0.306577
 C        -2.730281         0.098439        -0.156984
 O        -3.108780         1.486555        -0.507039
 C        -3.183219        -0.228516         1.165317
 C        -4.704244         0.084614         1.516349
 C        -4.954358         0.202227         2.994493
 O        -5.716240         1.046897         3.441156
 H         1.490322        -0.956553         0.820824
 H         2.110396         0.254967        -0.390073
 H         1.282687         0.758695         1.134379
 H        -3.288565        -0.607511        -0.884480
 H        -2.566532         2.009244         0.131663
 H        -3.018460        -1.282848         1.115708
 H        -2.502487         0.196490         1.927189
 H        -4.820547         1.007116         0.874715
 H        -5.383752        -0.743542         1.014985
 H        -4.453325        -0.594396         3.450713
