19
Iteration:  4109charge 0 multiplicity 1
 C         1.158889         0.707680        -0.500621
 C         0.019473         0.207467         0.249155
 C        -1.090645        -0.101403         0.488337
 C        -2.494625        -0.181362         0.636601
 O        -3.248852        -0.375524        -0.561307
 C        -3.135149         1.100507         1.294216
 C        -4.614598         1.291228         1.367846
 C        -5.553131         0.586650         2.412354
 O        -5.287678        -0.170005         3.293825
 H         1.536201         1.696503        -0.199424
 H         2.066333         0.001914        -0.326375
 H         0.802515         0.732000        -1.539245
 H        -2.759360        -1.036957         1.272859
 H        -3.398088        -1.266336        -0.861567
 H        -2.684669         1.357139         2.277220
 H        -2.759481         1.831530         0.491153
 H        -5.113140         2.285979         1.274813
 H        -4.935214         0.773718         0.485036
 H        -6.657655         0.709632         2.224237
