19
Iteration:  2331charge 0 multiplicity 1
 C         0.878060         0.329146         0.691474
 C        -0.448920         0.135745         0.218105
 C        -1.526698         0.051643        -0.347390
 C        -3.013609        -0.098011        -0.132623
 O        -3.640377         1.242952        -0.105412
 C        -3.094563        -0.780108         1.173798
 C        -4.429513        -0.693860         1.859297
 C        -4.959293         0.807214         2.173510
 O        -4.245625         1.622022         2.706808
 H         1.315755         1.173923         0.109546
 H         0.943103         0.442968         1.708512
 H         1.508885        -0.588070         0.559612
 H        -3.548936        -0.526175        -0.955372
 H        -3.107159         1.669952         0.584819
 H        -2.873433        -1.779948         0.804353
 H        -2.325109        -0.646549         1.886857
 H        -5.269784        -1.093913         1.374012
 H        -4.362066        -0.935732         2.974017
 H        -5.967114         1.216666         1.848144
