19
Iteration:  1694charge 0 multiplicity 1
 C         1.406832         0.210711         0.487265
 C        -0.048935        -0.060348         0.026431
 C        -1.302477        -0.051060        -0.144908
 C        -2.783555        -0.001462        -0.129341
 O        -3.209687         1.089472        -0.909358
 C        -3.280675         0.105132         1.308321
 C        -4.816980         0.403133         1.383421
 C        -5.363123         0.784857         2.675315
 O        -4.981363         0.293527         3.727500
 H         2.033683        -0.550656         0.139055
 H         1.727388         1.220047         0.167874
 H         1.380600         0.211487         1.551449
 H        -3.170708        -0.953709        -0.439062
 H        -3.129021         0.699423        -1.799053
 H        -3.037813        -0.720469         1.920689
 H        -2.714929         0.882971         1.823086
 H        -5.202077         1.133775         0.696865
 H        -5.260250        -0.502120         1.101495
 H        -6.304030         1.503534         2.645131
