19
Iteration:  2634
 C         1.381370         0.238487         0.148274
 C        -0.100026         0.050549         0.012924
 C        -1.325983        -0.084753        -0.085321
 C        -2.822219        -0.067091        -0.027737
 O        -3.412548         0.857977        -0.897121
 C        -3.112023         0.076966         1.441054
 C        -4.596842        -0.300402         1.721482
 C        -5.387192         0.658892         2.572372
 O        -4.983724         1.266123         3.553057
 H         1.608808         1.247908         0.367740
 H         1.821851        -0.529001         0.790575
 H         1.750040        -0.071225        -0.818724
 H        -3.190653        -1.051599        -0.377008
 H        -3.344295         1.759390        -0.544463
 H        -2.494002        -0.570775         2.082961
 H        -2.827188         1.171191         1.578805
 H        -5.192062        -0.337294         0.717289
 H        -4.697817        -1.400493         2.100228
 H        -6.547284         0.693546         2.381133
