19
Iteration:  3866
 C         1.234254         0.106644         0.366392
 C        -0.230885         0.127087         0.482587
 C        -1.472588         0.215250         0.455683
 C        -2.895517         0.160465         0.433551
 O        -3.359393        -0.328139        -0.798411
 C        -3.789657         1.484964         0.611773
 C        -5.063284         0.898027         1.240540
 C        -4.968447         0.356334         2.612501
 O        -3.962815         0.096994         3.234497
 H         1.519527         1.039466        -0.178051
 H         1.715525         0.087807         1.303006
 H         1.611400        -0.800215        -0.182212
 H        -3.247974        -0.581130         1.124709
 H        -2.607007        -0.452026        -1.412766
 H        -3.321031         2.231864         1.296990
 H        -4.014347         1.790496        -0.396158
 H        -5.930097         1.541633         1.406306
 H        -5.357126        -0.007109         0.651242
 H        -5.954614         0.365993         3.150735
