19
Iteration:   804
 C         1.318498        -0.288149        -0.040541
 C        -0.037444        -0.349961        -0.028889
 C        -1.183118        -0.004138        -0.036167
 C        -2.588200         0.294196        -0.062759
 O        -2.818378         1.665518        -0.470933
 C        -3.332157         0.292810         1.328578
 C        -4.877440         0.287691         1.307539
 C        -5.280793         0.724139         2.740880
 O        -5.615500         0.027246         3.681236
 H         1.721784        -0.158987         0.924598
 H         1.803389        -1.183439        -0.487831
 H         1.606169         0.576041        -0.643178
 H        -3.087983        -0.378361        -0.783220
 H        -2.591728         1.566906        -1.388473
 H        -3.047740        -0.613159         1.834879
 H        -2.900084         1.184527         1.883844
 H        -5.416177         1.077557         0.752051
 H        -5.357145        -0.653217         1.152954
 H        -5.034788         1.765462         3.077955
