19
Iteration:   115charge 0 multiplicity 1
 C         1.385011         0.125765         0.146870
 C        -0.050197        -0.138961        -0.173890
 C        -1.281169        -0.148126        -0.198600
 C        -2.708370         0.062903        -0.076582
 O        -2.999916         1.493623        -0.361878
 C        -3.138738        -0.224345         1.313198
 C        -4.667303         0.167489         1.447723
 C        -4.935222         0.786069         2.800914
 O        -5.917334         0.527169         3.464150
 H         1.471200         0.646915         1.138120
 H         2.044065        -0.802647         0.094728
 H         1.746558         0.799622        -0.663212
 H        -3.176628        -0.622574        -0.833767
 H        -3.746937         1.479956        -0.961379
 H        -2.916314        -1.361954         1.476847
 H        -2.558416         0.161796         2.101688
 H        -5.033802         0.854323         0.595831
 H        -5.375646        -0.716439         1.433116
 H        -4.052564         1.419617         3.048791
