19
Iteration:  1864
 C         1.165135         0.039894         0.672203
 C        -0.261219         0.026268         0.281511
 C        -1.433150        -0.149745         0.012101
 C        -2.886818        -0.018118        -0.158307
 O        -3.146906         0.996524        -1.262340
 C        -3.390251         0.651740         1.089810
 C        -4.758761         0.300790         1.283979
 C        -5.243807         0.535101         2.766260
 O        -4.560721         0.344281         3.769277
 H         1.792883        -0.420051        -0.119158
 H         1.465069         1.078402         0.739569
 H         1.336350        -0.556453         1.589019
 H        -3.317760        -0.972807        -0.538576
 H        -2.353671         1.527228        -1.138389
 H        -2.871089         0.395610         2.049886
 H        -3.272642         1.733966         1.210086
 H        -5.485886         0.799511         0.677148
 H        -4.958103        -0.753285         1.232721
 H        -6.298403         0.821894         2.981079
