19
Iteration:  2865charge 0 multiplicity 1
 C         1.446893         0.157236        -0.057718
 C        -0.082392        -0.134880         0.070102
 C        -1.276633        -0.271069        -0.043235
 C        -2.720342        -0.027402         0.039702
 O        -3.194704         1.003448        -0.944071
 C        -3.362832         0.474681         1.331423
 C        -4.529045        -0.359985         1.915521
 C        -5.186353         0.319398         3.050218
 O        -5.397379         1.499214         3.239500
 H         2.050746         0.748545         0.677173
 H         1.893209        -0.962234        -0.215531
 H         1.413093         0.803405        -1.014810
 H        -3.290290        -1.016953        -0.114304
 H        -3.285546         0.654117        -1.865801
 H        -2.683879         0.301333         2.174680
 H        -3.591970         1.549125         1.144579
 H        -5.417391        -0.427527         1.375089
 H        -4.301445        -1.372150         2.093734
 H        -5.796315        -0.433862         3.514547
