19
Iteration:  4311charge 0 multiplicity 1
 C         1.101615         0.390079        -0.625217
 C        -0.036825         0.228803         0.335235
 C        -1.226681         0.010348         0.560209
 C        -2.700598         0.079407         0.958069
 O        -3.432008        -0.482406        -0.193674
 C        -3.217009         1.562998         1.285858
 C        -4.692374         1.552993         1.470446
 C        -5.279765         0.196228         1.893702
 O        -4.840712        -0.396206         2.892343
 H         2.026285         0.700584        -0.089618
 H         1.308911        -0.549708        -1.047782
 H         1.087404         1.155249        -1.430680
 H        -2.954084        -0.504076         1.825762
 H        -3.352220        -1.375291         0.130276
 H        -2.667598         1.792306         2.205393
 H        -2.911633         2.272614         0.519423
 H        -5.079418         2.094129         2.352023
 H        -5.258625         1.959780         0.639426
 H        -6.215609        -0.059960         1.360966
