19
Iteration:   336charge 0 multiplicity 1
 C         1.576630        -0.102242        -0.368035
 C         0.104108        -0.274911        -0.174445
 C        -1.123133        -0.110774         0.006439
 C        -2.550657         0.208140         0.153447
 O        -3.017376         1.434787        -0.526942
 C        -3.101489         0.302020         1.564941
 C        -4.696990         0.313387         1.561441
 C        -5.179478         0.583925         2.932575
 O        -6.295473         0.289913         3.367657
 H         1.988939         0.509604         0.407498
 H         2.123094        -1.112563        -0.408648
 H         1.704236         0.429071        -1.310570
 H        -3.254370        -0.550892        -0.292842
 H        -2.824330         1.316976        -1.455254
 H        -2.624879        -0.676073         2.080901
 H        -2.729568         1.295009         1.936387
 H        -5.043340         1.034858         0.858674
 H        -5.192976        -0.552534         1.153041
 H        -4.529877         1.424352         3.647591
