19
Iteration:  4976
 C         1.272431         0.400774         0.231094
 C        -0.179508         0.303590         0.587861
 C        -1.387723         0.155519         0.323784
 C        -2.821041        -0.007622         0.326422
 O        -3.340351        -0.507626        -0.892545
 C        -3.508621         1.299938         0.690514
 C        -4.917849         1.210226         1.384993
 C        -5.067063         0.583028         2.669858
 O        -4.462505        -0.269184         3.316547
 H         1.307071         0.405067        -0.868284
 H         1.908321         1.263741         0.482015
 H         1.913597        -0.570861         0.421286
 H        -2.976650        -0.569106         1.284090
 H        -3.449161        -1.494356        -0.968073
 H        -2.736195         1.775398         1.325956
 H        -3.526600         1.887387        -0.231557
 H        -5.410007         2.197125         1.509934
 H        -5.810719         0.821224         0.770315
 H        -6.048503         1.052574         3.092938
