19
Iteration:  1513charge 0 multiplicity 1
 C         1.487872        -0.309842        -0.322925
 C         0.130047         0.034205        -0.059582
 C        -1.017075         0.380727         0.179295
 C        -2.517129         0.230444         0.166476
 O        -3.109420         1.125116        -0.798976
 C        -3.158485         0.391921         1.602096
 C        -4.709824         0.282134         1.469075
 C        -5.657082         0.089740         2.636362
 O        -5.816139         0.658456         3.697237
 H         1.675693        -1.456871        -0.487182
 H         1.908027         0.176286        -1.216414
 H         2.182099         0.038638         0.545246
 H        -2.721471        -0.910454        -0.021479
 H        -2.733915         1.103248        -1.702953
 H        -2.630187        -0.278870         2.436503
 H        -2.770888         1.441116         1.900126
 H        -4.878178         1.287423         0.987999
 H        -4.852662        -0.442398         0.650670
 H        -6.100693        -0.917138         2.677133
