19
Iteration:  1517
 C         1.504578        -0.314854        -0.364775
 C         0.143746         0.017140        -0.024007
 C        -1.052926         0.397531         0.183894
 C        -2.514571         0.206076         0.197689
 O        -3.125675         1.117595        -0.819221
 C        -3.143285         0.425949         1.628838
 C        -4.711233         0.277232         1.447957
 C        -5.649380         0.095935         2.606386
 O        -5.812737         0.648265         3.709112
 H         1.674932        -1.369977        -0.397544
 H         1.938244         0.213168        -1.197941
 H         2.043688        -0.037474         0.520901
 H        -2.614651        -0.879868        -0.028465
 H        -2.630583         1.227104        -1.660188
 H        -2.627765        -0.300771         2.304421
 H        -2.804915         1.426835         1.861051
 H        -4.816770         1.268834         1.030398
 H        -4.940874        -0.419042         0.676803
 H        -6.161159        -0.874364         2.731273
