19
Iteration:   106charge 0 multiplicity 1
 C         1.391114         0.108358         0.104414
 C        -0.060750        -0.139188        -0.131168
 C        -1.263746        -0.024014        -0.121346
 C        -2.733709         0.072850        -0.132390
 O        -2.952428         1.421782        -0.407942
 C        -3.173994        -0.224360         1.391795
 C        -4.721219         0.157674         1.449721
 C        -4.942521         0.810660         2.747313
 O        -5.869000         0.499285         3.464544
 H         1.644127         0.628014         1.025039
 H         2.109864        -0.875301         0.064608
 H         1.705208         0.812726        -0.678453
 H        -3.512437        -0.552876        -0.812612
 H        -3.778000         1.550667        -0.867178
 H        -3.169176        -1.412759         1.437419
 H        -2.255018        -0.025324         2.082340
 H        -4.914729         1.046637         0.677046
 H        -5.345774        -0.715999         1.257275
 H        -4.306656         1.422569         3.389842
