19
Iteration:  1772charge 0 multiplicity 1
 C         1.152038         0.149064         0.809373
 C        -0.264092         0.211410         0.306877
 C        -1.380708        -0.064965        -0.176180
 C        -2.864771        -0.076491        -0.274397
 O        -3.264221         0.826177        -1.305189
 C        -3.339851         0.168275         1.151723
 C        -4.712629         0.701461         1.355571
 C        -5.246777         0.610487         2.800451
 O        -4.556684         0.267703         3.747850
 H         1.765410        -0.532410         0.188826
 H         1.609663         1.096959         0.659913
 H         1.198052        -0.303520         1.805933
 H        -3.260553        -1.056262        -0.314339
 H        -2.895862         1.654764        -0.892019
 H        -3.370194        -0.893305         1.447758
 H        -2.677401         0.735254         1.862811
 H        -4.741999         1.793485         1.228627
 H        -5.352417         0.307120         0.607109
 H        -6.252042         1.038025         2.800851
