19
Iteration:   853
 C         1.353754        -0.272663        -0.204382
 C        -0.084446        -0.088149        -0.080985
 C        -1.293563        -0.168834        -0.098143
 C        -2.568390         0.260594         0.089715
 O        -2.810440         1.540522        -0.488657
 C        -3.161836         0.312876         1.536407
 C        -4.672675         0.334356         1.463743
 C        -5.266588         0.763555         2.754165
 O        -5.900794         0.024871         3.479248
 H         1.900537        -0.322719         0.807547
 H         1.623046        -1.213870        -0.723809
 H         1.868136         0.569056        -0.741178
 H        -3.278001        -0.429454        -0.564402
 H        -2.199939         1.628664        -1.283595
 H        -2.842947        -0.716005         1.858147
 H        -2.673839         1.119364         2.160901
 H        -4.988146         1.125496         0.835791
 H        -5.337127        -0.582495         1.365424
 H        -5.392266         1.820859         3.094911
