19
Iteration:  3059charge 0 multiplicity 1
 C         1.108252         0.617485        -0.156807
 C        -0.230885         0.164543        -0.000339
 C        -1.349872        -0.221048         0.031431
 C        -2.776277        -0.286836         0.257962
 O        -3.219882         1.066623        -0.173631
 C        -3.151717        -0.693996         1.694871
 C        -4.755233        -0.524707         1.962335
 C        -5.329026         0.834703         2.148745
 O        -4.694865         1.667226         2.742462
 H         1.742886         0.226040         0.647014
 H         1.496754         0.177053        -1.046202
 H         1.240655         1.678071        -0.300372
 H        -3.251047        -0.913020        -0.560349
 H        -3.288918         1.088096        -1.153028
 H        -2.904285        -1.755846         1.831463
 H        -2.624557        -0.127182         2.482890
 H        -5.439548        -1.012727         1.222160
 H        -5.090502        -1.016828         2.913680
 H        -6.419143         1.021982         1.775184
