19
Iteration:  4711
 C         1.255912         0.166367         0.383246
 C        -0.193237         0.118596         0.300503
 C        -1.408760         0.342293         0.248757
 C        -2.816094         0.033017         0.232933
 O        -3.274814         0.015104        -1.249428
 C        -3.571850         1.044508         1.107796
 C        -5.101839         0.706614         1.311652
 C        -5.188513         0.389343         2.767091
 O        -4.196439         0.303595         3.509308
 H         1.463609        -0.885520         0.607783
 H         1.634947         0.551539        -0.641347
 H         1.628435         0.677275         1.254606
 H        -3.045118        -1.011251         0.700233
 H        -2.769542        -0.765708        -1.621212
 H        -3.182802         1.035413         2.103628
 H        -3.555900         2.065319         0.715119
 H        -5.869554         1.338764         0.874995
 H        -5.321106        -0.149291         0.592830
 H        -6.130211         0.162756         3.199250
