19
Iteration:  2494charge 0 multiplicity 1
 C         1.168450         0.727947        -0.046256
 C        -0.200183         0.272878         0.145356
 C        -1.305258        -0.141115         0.436244
 C        -2.761582        -0.370961         0.143947
 O        -3.222686         0.872570        -0.542970
 C        -3.708647        -0.738861         1.303577
 C        -5.144959        -0.130030         1.404268
 C        -5.135247         0.897087         2.501663
 O        -4.227558         1.315577         3.237776
 H         1.102119         1.837769        -0.296564
 H         1.679048         0.500186         0.880308
 H         1.825079         0.120509        -0.741376
 H        -2.796939        -1.095681        -0.691731
 H        -2.471582         1.244518        -1.047262
 H        -3.711600        -1.850688         1.291390
 H        -3.025767        -0.516236         2.124732
 H        -5.301585         0.290803         0.445791
 H        -5.822120        -0.910951         1.584700
 H        -6.206152         0.938509         2.851449
