19
Iteration:  1170charge 0 multiplicity 1
 C         1.463296        -0.151322        -0.119097
 C        -0.008899        -0.012463        -0.190083
 C        -1.227926        -0.014857        -0.028050
 C        -2.606032         0.224608         0.008667
 O        -3.028614         1.363160        -0.700756
 C        -3.060866         0.237792         1.549332
 C        -4.621589         0.207509         1.583150
 C        -5.340238        -0.040755         2.854328
 O        -5.890414         0.859681         3.432389
 H         1.742307        -0.927420         0.578926
 H         1.876174        -0.416531        -1.132287
 H         1.962861         0.754550         0.195933
 H        -3.155418        -0.538162        -0.454077
 H        -2.711998         2.123649        -0.126662
 H        -2.908214        -0.717822         2.113677
 H        -2.682128         1.082016         2.164455
 H        -5.062433         1.123589         1.147225
 H        -4.941333        -0.611903         0.884296
 H        -5.615413        -1.072316         3.192651
