19
Iteration:  4355charge 0 multiplicity 1
 C         1.203903         0.292507        -0.408259
 C        -0.225691         0.344301         0.084595
 C        -1.317260         0.183493         0.589593
 C        -2.746824         0.047912         0.970014
 O        -3.523117        -0.504261        -0.126193
 C        -3.193412         1.457401         1.275834
 C        -4.671135         1.496224         1.470692
 C        -5.261643         0.262637         1.964416
 O        -4.694618        -0.418412         2.765295
 H         2.043915         0.529775         0.264791
 H         1.282447        -0.577200        -0.987016
 H         1.336458         1.095840        -1.211470
 H        -2.692315        -0.530553         1.855083
 H        -3.073824        -1.249031        -0.521919
 H        -2.534064         1.784754         2.087739
 H        -2.921636         2.021265         0.390108
 H        -4.833092         2.173753         2.336199
 H        -5.147484         1.987831         0.595363
 H        -6.438136         0.190512         1.784579
