19
Iteration:  4540
 C         1.106282         0.505871        -0.157107
 C        -0.106050        -0.044890         0.416001
 C        -1.326452        -0.069677         0.425439
 C        -2.749320        -0.050486         0.464470
 O        -3.317675        -0.103354        -0.896615
 C        -3.282018         1.232006         1.222815
 C        -4.749801         1.043437         1.253747
 C        -5.322442         0.376739         2.500976
 O        -4.663411        -0.037388         3.452768
 H         1.941744         0.331301         0.546047
 H         1.362196         0.133012        -1.123421
 H         0.953407         1.606587        -0.425586
 H        -3.120163        -0.949085         1.059352
 H        -2.754229         0.320333        -1.535336
 H        -2.739405         1.224981         2.197130
 H        -2.838194         2.170842         0.820854
 H        -5.235851         2.059919         1.238174
 H        -5.220559         0.583878         0.438188
 H        -6.488501         0.539403         2.556334
