19
Iteration:   588charge 0 multiplicity 1
 C         1.361643        -0.423430         0.192889
 C        -0.102664        -0.271955         0.103205
 C        -1.320547        -0.097993        -0.161840
 C        -2.731034         0.390717        -0.199886
 O        -2.968708         1.648363        -0.910571
 C        -3.208143         0.653493         1.379288
 C        -4.767783         0.541978         1.480647
 C        -4.962585         0.483785         3.013751
 O        -5.755243        -0.231167         3.581305
 H         1.734785        -0.006568         1.135377
 H         1.617651        -1.495987         0.161263
 H         1.881626         0.043859        -0.679095
 H        -3.237596        -0.429841        -0.616653
 H        -2.459575         1.647803        -1.769179
 H        -2.707348         0.052035         2.085222
 H        -2.893334         1.702022         1.647938
 H        -5.206440         1.528109         1.153790
 H        -5.207212        -0.472906         1.118301
 H        -4.195986         1.175775         3.508755
