19
Iteration:  4350
 C         1.209508         0.319676        -0.461695
 C        -0.203076         0.338514         0.138585
 C        -1.323089         0.254455         0.630945
 C        -2.732555         0.001149         0.970057
 O        -3.545865        -0.503965        -0.131421
 C        -3.194304         1.396916         1.276382
 C        -4.661517         1.541772         1.466738
 C        -5.258897         0.272388         1.926210
 O        -4.688687        -0.414829         2.769866
 H         1.997867         0.434170         0.303233
 H         1.292485        -0.712820        -0.987359
 H         1.272916         1.045580        -1.242383
 H        -2.824614        -0.646347         1.912605
 H        -3.256934        -1.314641        -0.614884
 H        -2.603944         1.898380         2.067630
 H        -2.951743         1.958920         0.340183
 H        -4.804019         2.192653         2.385661
 H        -5.122928         2.003141         0.606785
 H        -6.283435         0.024987         1.828418
