19
Iteration:   111charge 0 multiplicity 1
 C         1.402226         0.108118         0.136401
 C        -0.048812        -0.141386        -0.165145
 C        -1.290883        -0.095307        -0.163473
 C        -2.725577         0.054843        -0.110896
 O        -2.977779         1.464227        -0.375150
 C        -3.149262        -0.222551         1.347862
 C        -4.703060         0.171571         1.434560
 C        -4.947835         0.791633         2.770189
 O        -5.891574         0.517169         3.460843
 H         1.558788         0.658278         1.090710
 H         1.995219        -0.703578         0.087576
 H         1.694482         0.801552        -0.666655
 H        -3.290054        -0.525572        -0.765151
 H        -3.802595         1.493686        -0.943516
 H        -2.947111        -1.226694         1.475254
 H        -2.329960        -0.047787         2.152173
 H        -4.982016         0.849651         0.723871
 H        -5.366664        -0.710340         1.372218
 H        -4.087906         1.464255         3.288222
