19
Iteration:  3966charge 0 multiplicity 1
 C         1.292395         0.335427         0.433997
 C        -0.129955         0.298122         0.064049
 C        -1.341380         0.172720         0.143228
 C        -2.793872         0.099626         0.303045
 O        -3.506762        -0.673104        -0.564046
 C        -3.432359         1.398703         0.800827
 C        -4.913071         1.307264         1.282244
 C        -5.216544         0.348713         2.562696
 O        -4.420368        -0.170873         3.356894
 H         1.626215         1.393833         0.408502
 H         1.443731         0.019990         1.479709
 H         1.956183        -0.177624        -0.287961
 H        -2.866385        -0.549604         1.157474
 H        -2.892741        -0.557848        -1.307307
 H        -2.728708         1.695889         1.645821
 H        -3.245566         2.263072         0.115280
 H        -5.188533         2.310329         1.646296
 H        -5.581900         0.912063         0.615894
 H        -6.267273         0.344074         2.930958
