19
Iteration:  2832
 C         1.321331         0.115003        -0.153936
 C        -0.145748        -0.157441        -0.115782
 C        -1.317402        -0.145766         0.188640
 C        -2.729187        -0.045401         0.045433
 O        -2.898116         0.880605        -1.151120
 C        -3.311796         0.558997         1.341336
 C        -4.533981        -0.231350         1.881546
 C        -5.267372         0.287036         3.145596
 O        -5.599602         1.420738         3.454902
 H         1.741693         0.761661         0.658545
 H         1.981002        -0.892963        -0.208861
 H         1.563861         0.589036        -1.192379
 H        -3.249288        -1.023578        -0.232361
 H        -2.234916         0.696467        -1.856055
 H        -2.463304         0.614757         2.036566
 H        -3.528256         1.631652         1.134492
 H        -5.323035        -0.174244         1.160124
 H        -4.238564        -1.250156         1.975025
 H        -5.498405        -0.571658         3.842046
