19
Iteration:   646charge 0 multiplicity 1
 C         1.248043        -0.570602         0.406544
 C        -0.092229        -0.093169        -0.018131
 C        -1.314906         0.024284        -0.265805
 C        -2.708719         0.485925        -0.234055
 O        -3.026200         1.653540        -1.029793
 C        -3.170285         0.489757         1.262528
 C        -4.698740         0.438585         1.573879
 C        -5.010342         0.550613         3.025127
 O        -5.670031        -0.198003         3.679511
 H         1.519738        -0.247426         1.439866
 H         1.366204        -1.601855         0.397931
 H         2.032483        -0.091762        -0.176464
 H        -3.141399        -0.340750        -0.856263
 H        -2.160298         2.053014        -1.134536
 H        -2.679554        -0.537519         1.465705
 H        -2.694487         1.175165         1.907071
 H        -5.375276         1.125379         0.972731
 H        -5.129991        -0.529261         1.154649
 H        -4.659409         1.549224         3.599318
