19
Iteration:   478
 C         1.411445        -0.497847        -0.308105
 C         0.062346        -0.082737        -0.043954
 C        -1.105408         0.196299         0.018749
 C        -2.552901         0.222818         0.183167
 O        -3.137189         1.208921        -0.681206
 C        -3.120620         0.585413         1.652815
 C        -4.640538         0.721670         1.579573
 C        -5.291616         0.683141         2.841681
 O        -5.941761        -0.224735         3.264476
 H         2.110798        -0.129132         0.380263
 H         1.572491        -1.590139        -0.422345
 H         1.644798        -0.053076        -1.262125
 H        -2.982460        -0.788609        -0.086347
 H        -2.714043         2.009575        -0.359075
 H        -2.895389        -0.174542         2.329068
 H        -2.464948         1.427802         1.786368
 H        -4.875722         1.688051         1.032405
 H        -5.209641         0.095838         0.841152
 H        -5.108679         1.552240         3.513953
