19
Iteration:  4042
 C         1.235480         0.707855        -0.109003
 C        -0.129692         0.204563         0.174345
 C        -1.317479        -0.091443         0.482251
 C        -2.795355        -0.246284         0.561950
 O        -3.288010        -0.442721        -0.762174
 C        -3.330243         1.141614         1.328219
 C        -4.756210         1.257930         1.314073
 C        -5.388486         0.568985         2.403836
 O        -4.657373        -0.059145         3.197276
 H         1.329728         1.813196         0.081706
 H         1.994841         0.198043         0.565983
 H         1.574870         0.522557        -1.173590
 H        -3.089143        -1.152163         1.151882
 H        -3.746751        -1.323730        -0.726003
 H        -2.851000         1.232841         2.339648
 H        -2.837309         1.923966         0.703041
 H        -4.952211         2.366341         1.376577
 H        -5.061528         0.873904         0.344314
 H        -6.445949         0.741996         2.680178
