19
Iteration:  4454
 C         1.331582         0.262177        -0.276984
 C        -0.042795         0.490096         0.030081
 C        -1.201479         0.206868         0.376766
 C        -2.666790         0.087946         0.567271
 O        -3.365947        -0.487821        -0.587870
 C        -3.206223         1.300698         1.350336
 C        -4.796544         1.318141         1.485582
 C        -5.460703         0.510641         2.517237
 O        -4.964260        -0.430428         3.094684
 H         2.006632         0.154510         0.601624
 H         1.271493        -0.625205        -0.868273
 H         1.849319         1.090895        -0.870141
 H        -2.721345        -0.722028         1.327866
 H        -3.090901        -1.410203        -0.639148
 H        -2.804982         1.318485         2.370143
 H        -2.953478         2.161262         0.735823
 H        -5.055519         2.422972         1.545145
 H        -5.131655         1.025237         0.458760
 H        -6.577102         0.843415         2.799382
