19
Iteration:  3132charge 0 multiplicity 1
 C         1.100737         0.771479        -0.425461
 C        -0.170910         0.144038        -0.138594
 C        -1.239379        -0.296482         0.205778
 C        -2.742673        -0.347361         0.499590
 O        -3.176337         1.112208         0.242996
 C        -3.394034        -0.919042         1.786629
 C        -4.908409        -0.608153         1.791969
 C        -5.296691         0.854167         2.074068
 O        -4.597739         1.781752         2.445621
 H         2.026396         0.396954         0.095639
 H         1.308491         0.810284        -1.525863
 H         0.993608         1.859982        -0.154973
 H        -3.095092        -0.932823        -0.316922
 H        -2.393349         1.574315        -0.131854
 H        -3.345793        -1.970219         1.973957
 H        -2.920045        -0.385441         2.602315
 H        -5.260360        -0.768204         0.767849
 H        -5.636738        -1.248268         2.292298
 H        -6.462522         0.961075         2.027110
