19
Iteration:   361charge 0 multiplicity 1
 C         1.396246        -0.116431        -0.452360
 C         0.006337        -0.247616        -0.143422
 C        -1.157620         0.004675         0.149726
 C        -2.565236         0.115649         0.152085
 O        -2.743115         1.363663        -0.587268
 C        -3.146669         0.396849         1.557369
 C        -4.643749         0.427590         1.561306
 C        -5.231130         0.584578         2.968542
 O        -6.255838         0.165503         3.347967
 H         1.881436         0.523575         0.395292
 H         1.858030        -1.082541        -0.441800
 H         1.555646         0.447019        -1.446225
 H        -3.160787        -0.639547        -0.298991
 H        -2.872682         1.213844        -1.532178
 H        -2.767938        -0.476656         2.181584
 H        -2.744852         1.348304         1.778001
 H        -5.112333         1.120990         0.879659
 H        -4.981569        -0.497501         1.162612
 H        -4.601979         1.335732         3.816172
