19
Iteration:   157charge 0 multiplicity 1
 C         1.375269         0.069250         0.156202
 C        -0.048366        -0.029584        -0.122220
 C        -1.274681        -0.072176        -0.336526
 C        -2.737837         0.061065        -0.171112
 O        -2.967366         1.462723        -0.408277
 C        -3.127197        -0.186286         1.228551
 C        -4.627463        -0.013711         1.522551
 C        -5.003402         0.712404         2.867103
 O        -6.015678         0.660286         3.550706
 H         1.521365         0.545908         1.164002
 H         1.815650        -0.886698         0.176166
 H         1.892228         0.703217        -0.581365
 H        -3.385291        -0.518751        -0.751807
 H        -2.200238         1.703597        -0.992704
 H        -2.841988        -1.222381         1.546764
 H        -2.380755         0.347506         1.823819
 H        -5.178612         0.413624         0.744301
 H        -4.969189        -1.074686         1.672473
 H        -4.259015         1.295196         3.363045
