19
Iteration:  2953charge 0 multiplicity 1
 C         1.373423        -0.058416         0.138230
 C        -0.099100         0.350580        -0.059173
 C        -1.306862         0.327660        -0.132783
 C        -2.758358        -0.081453        -0.014331
 O        -3.716615         0.632833        -0.644786
 C        -3.034780        -0.056960         1.475703
 C        -4.465581        -0.411744         1.869660
 C        -5.305853         0.571891         2.566811
 O        -5.018747         1.613443         3.149886
 H         1.582880        -0.148163         1.224521
 H         1.538468        -1.149194        -0.252441
 H         2.299738         0.524772        -0.132040
 H        -2.746057        -1.074635        -0.474204
 H        -3.496687         1.596723        -0.576454
 H        -2.367133        -0.842005         1.885240
 H        -2.861672         0.921333         1.984873
 H        -5.163415        -0.797274         1.086624
 H        -4.450649        -1.097763         2.674895
 H        -6.424545         0.217350         2.524135
