19
Iteration:  2569charge 0 multiplicity 1
 C         1.160957         0.675836         0.024339
 C        -0.159230         0.071549         0.019642
 C        -1.316997        -0.291458         0.080162
 C        -2.735882        -0.317244         0.031831
 O        -3.198634         0.906396        -0.637473
 C        -3.376347        -0.500024         1.470373
 C        -4.881933        -0.108897         1.524977
 C        -5.358608         0.872955         2.550278
 O        -4.611123         1.298140         3.407844
 H         1.111619         1.750792         0.030278
 H         1.804437         0.337757         0.829927
 H         1.675450         0.331681        -0.856457
 H        -3.182789        -1.077535        -0.661903
 H        -2.441675         1.453951        -0.864010
 H        -3.043133        -1.492741         1.919882
 H        -2.806526         0.060138         2.296764
 H        -5.263914         0.368058         0.549311
 H        -5.439387        -1.089617         1.691847
 H        -6.434314         1.017268         2.497001
