19
Iteration:  2605charge 0 multiplicity 1
 C         1.248467         0.461079         0.136270
 C        -0.121368         0.081737        -0.097629
 C        -1.300789        -0.242303        -0.058734
 C        -2.757748        -0.177128        -0.005625
 O        -3.207872         0.874707        -0.778773
 C        -3.266104        -0.153786         1.427117
 C        -4.834179        -0.280584         1.680692
 C        -5.402935         0.801239         2.577437
 O        -4.807905         1.265748         3.524767
 H         1.437882         1.565596         0.270860
 H         1.726606        -0.117287         0.917555
 H         1.789108         0.219967        -0.834000
 H        -3.167485        -1.091052        -0.517494
 H        -2.739911         1.684331        -0.574005
 H        -2.864293        -1.028542         2.007573
 H        -2.933405         0.856631         1.661440
 H        -5.453052        -0.406242         0.799788
 H        -4.919618        -1.213513         2.183923
 H        -6.406861         1.163965         2.405270
