19
Iteration:   638charge 0 multiplicity 1
 C         1.234878        -0.528985         0.390030
 C        -0.121835        -0.108780         0.002940
 C        -1.301267         0.019372        -0.206350
 C        -2.737557         0.505928        -0.207988
 O        -2.977720         1.681017        -1.076465
 C        -3.168620         0.428852         1.232580
 C        -4.649123         0.403352         1.564991
 C        -5.009884         0.603351         3.063954
 O        -5.699803        -0.242558         3.660221
 H         1.410750        -0.212806         1.405902
 H         1.320064        -1.664725         0.283950
 H         1.961582        -0.138641        -0.306934
 H        -3.363451        -0.399786        -0.725583
 H        -2.177893         2.065602        -1.452119
 H        -2.738277        -0.497402         1.745258
 H        -2.769788         1.358086         1.795695
 H        -5.153238         1.281833         1.117387
 H        -5.165167        -0.494405         1.429992
 H        -4.469279         1.554995         3.450241
