19
Iteration:  4758
 C         1.196719         0.261687         0.221585
 C        -0.230000         0.161260         0.498662
 C        -1.414657        -0.113823         0.474177
 C        -2.864764        -0.108378         0.236516
 O        -3.163058         0.131828        -1.204165
 C        -3.596133         1.195196         0.681322
 C        -5.011935         0.877804         1.390011
 C        -5.072468         0.218545         2.759134
 O        -4.290044         0.318870         3.688390
 H         1.753149        -0.685946         0.029275
 H         1.245405         1.009717        -0.560120
 H         1.762777         0.709488         1.142117
 H        -3.443136        -1.069653         0.354014
 H        -2.724915        -0.528613        -1.782289
 H        -3.245966         1.983755         1.415465
 H        -3.809877         1.733649        -0.272220
 H        -5.794742         1.669947         1.447986
 H        -5.555340         0.143437         0.652451
 H        -5.993841        -0.366248         2.877337
