19
Iteration:  3926
 C         1.192068         0.109276         0.488528
 C        -0.197030         0.364028         0.229989
 C        -1.446291         0.446879         0.162001
 C        -2.782735         0.080273         0.446486
 O        -3.363720        -0.671047        -0.648017
 C        -3.578923         1.247933         0.770777
 C        -5.065354         1.295491         1.360646
 C        -5.134914         0.371252         2.594476
 O        -4.102604        -0.047757         3.128026
 H         1.789074         0.985385         0.281425
 H         1.450247        -0.175312         1.566377
 H         1.579070        -0.611155        -0.199666
 H        -2.700674        -0.663920         1.292380
 H        -3.621470        -0.268088        -1.500144
 H        -2.938405         1.800521         1.475126
 H        -3.457866         2.004935        -0.068548
 H        -5.619614         2.268852         1.487290
 H        -5.696045         0.739481         0.466970
 H        -6.143278         0.128065         3.054293
