19
Iteration:   103
 C         1.388331         0.092909         0.076805
 C        -0.053375        -0.133851        -0.102925
 C        -1.256135         0.002822        -0.109215
 C        -2.742945         0.077394        -0.132428
 O        -2.937935         1.409581        -0.427549
 C        -3.185667        -0.248442         1.400668
 C        -4.707016         0.169566         1.455865
 C        -4.943745         0.815386         2.753872
 O        -5.871374         0.485382         3.470503
 H         1.649561         0.615646         1.065079
 H         2.019583        -0.795661         0.043917
 H         1.750877         0.805226        -0.714607
 H        -3.413711        -0.527558        -0.755461
 H        -3.817171         1.585143        -0.866485
 H        -3.302816        -1.409218         1.415375
 H        -2.429804         0.091560         1.980533
 H        -4.849212         1.023376         0.717444
 H        -5.379420        -0.730389         1.210729
 H        -4.293764         1.470109         3.286690
