19
Iteration:   778charge 0 multiplicity 1
 C         1.459149        -0.445646         0.058643
 C         0.040348        -0.126558        -0.081581
 C        -1.213086        -0.004668         0.030866
 C        -2.765756         0.376442        -0.109304
 O        -2.871073         1.735020        -0.630001
 C        -3.419199         0.180759         1.346159
 C        -4.913892         0.241611         1.378565
 C        -5.225699         0.759916         2.767786
 O        -5.529358         0.008992         3.662684
 H         1.756034        -0.330947         1.128658
 H         1.794606        -1.429223        -0.307111
 H         2.058299         0.269856        -0.510947
 H        -3.286184        -0.237351        -0.794404
 H        -2.442088         1.495813        -1.442207
 H        -2.979396        -0.858786         1.665899
 H        -2.927048         0.836114         2.047119
 H        -5.377450         1.213909         0.928051
 H        -5.561867        -0.675542         1.199749
 H        -5.185146         1.784888         3.053589
