19
Iteration:  3910
 C         1.202024         0.080682         0.427571
 C        -0.186130         0.356963         0.393117
 C        -1.429163         0.479278         0.292618
 C        -2.842968         0.066795         0.392018
 O        -3.421142        -0.660268        -0.672367
 C        -3.677453         1.400113         0.751060
 C        -5.048167         1.065143         1.241155
 C        -5.023724         0.430697         2.563069
 O        -4.027242        -0.051528         3.134221
 H         1.838114         0.956095         0.144555
 H         1.407716        -0.246680         1.418607
 H         1.418936        -0.840430        -0.187110
 H        -2.847117        -0.526115         1.292076
 H        -3.434793         0.051447        -1.355015
 H        -3.239766         1.843060         1.671502
 H        -3.683617         2.018982        -0.126330
 H        -5.308831         2.122585         1.481311
 H        -5.839674         0.764511         0.679883
 H        -6.045234         0.376617         3.032402
