19
Iteration:  1189
 C         1.372078        -0.139272        -0.078716
 C        -0.045670        -0.032323         0.035643
 C        -1.254683         0.029646        -0.173193
 C        -2.652483         0.171456         0.039457
 O        -3.119565         1.417153        -0.612465
 C        -3.006963         0.182030         1.506891
 C        -4.570301         0.104093         1.460083
 C        -5.320955        -0.011790         2.815321
 O        -5.816769         0.911925         3.432495
 H         1.790643        -0.997008         0.569123
 H         1.692961        -0.391911        -1.088302
 H         1.869197         0.797582         0.290090
 H        -3.301521        -0.549782        -0.538915
 H        -2.356147         2.064782        -0.505769
 H        -2.432668        -0.696987         1.859832
 H        -2.787868         1.206577         1.946796
 H        -4.838818         1.200819         1.101101
 H        -4.813966        -0.771651         0.899685
 H        -5.128480        -1.001341         3.256059
