19
Iteration:   213charge 0 multiplicity 1
 C         1.424653        -0.111118         0.016489
 C         0.023744        -0.036584        -0.012762
 C        -1.170645         0.091271        -0.135173
 C        -2.599393         0.203145        -0.129397
 O        -3.190330         1.451498        -0.605858
 C        -3.083594        -0.149367         1.273523
 C        -4.659740        -0.071757         1.565276
 C        -4.997652         0.645890         2.879249
 O        -6.052492         0.681456         3.476029
 H         1.821797         0.359905         0.914249
 H         1.761140        -1.173484        -0.074683
 H         1.764509         0.391512        -0.883302
 H        -2.980260        -0.433642        -0.893138
 H        -3.114983         1.969325         0.197470
 H        -2.750205        -1.192937         1.680796
 H        -2.577354         0.548028         2.044931
 H        -5.251027         0.321802         0.780250
 H        -5.157535        -1.072633         1.655395
 H        -3.918994         1.067155         3.338741
