19
Iteration:  4761
 C         1.209663         0.270912         0.220277
 C        -0.238356         0.147681         0.486673
 C        -1.410236        -0.123097         0.479799
 C        -2.871728        -0.108926         0.223055
 O        -3.151140         0.132831        -1.190831
 C        -3.628784         1.192807         0.655688
 C        -4.992258         0.887411         1.398237
 C        -5.068946         0.218270         2.761891
 O        -4.298496         0.315450         3.692226
 H         1.736049        -0.649673        -0.000240
 H         1.228143         1.019691        -0.519262
 H         1.633641         0.702372         1.137925
 H        -3.429238        -0.985490         0.463297
 H        -2.672217        -0.514252        -1.702771
 H        -3.144915         1.920098         1.413256
 H        -3.873800         1.726640        -0.260772
 H        -5.766533         1.694125         1.387802
 H        -5.533079         0.255304         0.676596
 H        -5.951278        -0.444753         2.862096
