19
Iteration:  3687
 C         1.286398         0.379256         0.336347
 C        -0.169162         0.444741         0.180251
 C        -1.301455        -0.093029         0.006507
 C        -2.716434        -0.363313         0.097967
 O        -3.510112         0.005246        -1.058053
 C        -3.248698         0.576314         1.266707
 C        -4.747261         0.721202         1.279241
 C        -5.323081         0.701622         2.711610
 O        -4.647786         0.650095         3.696745
 H         1.678087         0.490948        -0.649645
 H         1.584615         1.063213         1.174735
 H         1.364382        -0.660933         0.562438
 H        -2.963747        -1.388684         0.285261
 H        -2.937138        -0.284859        -1.794888
 H        -2.878150         0.273361         2.194238
 H        -2.779934         1.537270         1.117798
 H        -5.443565         1.438384         0.751193
 H        -5.009424        -0.362534         0.998444
 H        -6.451763         0.740426         2.773742
