19
Iteration:  4644
 C         1.281922         0.205831         0.438783
 C        -0.117860         0.223463         0.205282
 C        -1.301732         0.275845        -0.079767
 C        -2.730925         0.143641         0.093760
 O        -3.494811        -0.231288        -1.069569
 C        -3.393998         1.307667         0.919076
 C        -4.725603         0.795778         1.428299
 C        -5.250309         0.336033         2.788944
 O        -4.647277         0.117268         3.794591
 H         1.332842        -0.731207         1.003188
 H         1.864948        -0.037338        -0.519498
 H         1.702937         0.923764         1.066490
 H        -2.819940        -0.782152         0.684941
 H        -2.937894        -0.191322        -1.866404
 H        -2.592934         1.213746         1.561718
 H        -3.330475         2.162356         0.291452
 H        -5.527808         1.506857         1.238720
 H        -5.164765        -0.088737         0.867163
 H        -6.390303         0.102713         2.719173
