19
Iteration:  2730
 C         1.344542        -0.309562        -0.077452
 C        -0.024348         0.156544        -0.015519
 C        -1.183002         0.424662         0.046709
 C        -2.610193         0.151020         0.149863
 O        -3.236786         0.590226        -1.083794
 C        -3.335355         0.654817         1.422362
 C        -4.656238        -0.149160         1.681680
 C        -5.225724         0.136239         3.030809
 O        -5.402264         1.277549         3.416218
 H         2.256172         0.226974         0.345128
 H         1.417318        -1.475268         0.152852
 H         1.433257        -0.488871        -1.190523
 H        -2.874314        -0.954253         0.168506
 H        -2.912633         1.435187        -1.387871
 H        -2.607155         0.418752         2.263553
 H        -3.536747         1.736653         1.463446
 H        -5.429373         0.003923         0.990692
 H        -4.412066        -1.150999         1.611599
 H        -5.841646        -0.633395         3.569767
