19
Iteration:  4505charge 0 multiplicity 1
 C         1.230831         0.464575        -0.302748
 C        -0.096488         0.112591         0.197553
 C        -1.219309        -0.099624         0.535422
 C        -2.688208        -0.105469         0.568134
 O        -3.185343        -0.145046        -0.795780
 C        -3.300079         1.237493         1.158454
 C        -4.900448         1.244518         1.438666
 C        -5.483113         0.489815         2.600931
 O        -4.795169        -0.221387         3.287841
 H         1.986984         0.462179         0.515865
 H         1.633132        -0.182309        -1.090677
 H         1.242492         1.525655        -0.591357
 H        -2.970901        -1.022241         1.156423
 H        -2.640771        -0.677494        -1.363512
 H        -3.014994         1.421504         2.199369
 H        -2.983315         1.966239         0.366387
 H        -5.157076         2.315809         1.477874
 H        -5.306391         0.945010         0.504882
 H        -6.615938         0.667979         2.778868
