19
Iteration:  4418
 C         1.394511         0.317644        -0.272692
 C        -0.004971         0.183489         0.016259
 C        -1.194565         0.379620         0.198340
 C        -2.481597         0.110410         0.672126
 O        -3.596562        -0.356980        -0.128420
 C        -3.250426         1.329929         1.263176
 C        -4.752875         1.343348         1.350640
 C        -5.482865         0.415459         2.406510
 O        -4.946056        -0.537811         2.963455
 H         2.032460         0.213670         0.629141
 H         1.694424        -0.596584        -0.867613
 H         1.553299         1.180786        -0.945713
 H        -2.368579        -0.731677         1.440112
 H        -3.239132        -1.155557        -0.500546
 H        -2.728637         1.722950         2.167543
 H        -3.044535         2.186133         0.548653
 H        -5.175967         2.368289         1.637457
 H        -5.164668         1.125432         0.402356
 H        -6.613827         0.725461         2.696045
