19
Iteration:  1519
 C         1.517043        -0.318268        -0.383080
 C         0.130661         0.013234        -0.001884
 C        -1.058622         0.398791         0.183686
 C        -2.508977         0.190222         0.215418
 O        -3.137879         1.111072        -0.828305
 C        -3.130009         0.444775         1.642490
 C        -4.706116         0.286250         1.439429
 C        -5.642579         0.092092         2.601840
 O        -5.807142         0.648228         3.711506
 H         1.662014        -1.333246        -0.362331
 H         1.959943         0.254371        -1.230786
 H         1.992275        -0.074610         0.515515
 H        -2.569956        -0.813909        -0.062694
 H        -2.549360         1.265638        -1.572575
 H        -2.670635        -0.282116         2.172444
 H        -2.863599         1.419748         1.872421
 H        -4.836762         1.275586         1.036783
 H        -5.018467        -0.469750         0.647408
 H        -6.232025        -0.907991         2.669543
