19
Iteration:  2421
 C         1.136346         0.496632         0.371954
 C        -0.283226         0.353027         0.219991
 C        -1.457395         0.021192         0.105215
 C        -2.863905        -0.240548        -0.140104
 O        -3.675537         0.865828        -0.414581
 C        -3.428482        -0.765520         1.286514
 C        -4.871955        -0.323051         1.547902
 C        -4.933698         0.979492         2.297029
 O        -4.112097         1.322257         3.150721
 H         1.357135         1.514941        -0.001651
 H         1.408638         0.405102         1.430344
 H         1.878413        -0.196260        -0.002073
 H        -3.015558        -1.086927        -0.826319
 H        -3.161961         1.656899        -0.267687
 H        -3.235223        -1.842699         1.277124
 H        -2.784702        -0.302479         2.068974
 H        -5.318520        -0.141905         0.527227
 H        -5.408853        -1.121079         2.186042
 H        -5.682337         1.623157         1.740092
