19
Iteration:   456
 C         1.461600        -0.391842        -0.417089
 C         0.030713        -0.166407        -0.162982
 C        -1.125305         0.070833         0.219184
 C        -2.565375         0.373435         0.261747
 O        -3.065095         1.180447        -0.759699
 C        -3.148370         0.549193         1.729460
 C        -4.626797         0.733184         1.495432
 C        -5.261196         0.664881         2.870785
 O        -6.010620        -0.178422         3.265556
 H         2.037529        -0.018931         0.370921
 H         1.614445        -1.500669        -0.384320
 H         1.848361        -0.013542        -1.337060
 H        -2.930319        -0.695842         0.183137
 H        -3.068439         2.061243        -0.292354
 H        -2.884072        -0.400939         2.123802
 H        -2.594906         1.381316         2.140316
 H        -4.794140         1.602235         0.790425
 H        -5.151282        -0.103652         0.889078
 H        -5.081862         1.389752         3.632916
