19
Iteration:  1046charge 0 multiplicity 1
 C         1.489505        -0.133549        -0.385757
 C         0.045132        -0.084770        -0.188628
 C        -1.108095        -0.170434        -0.094256
 C        -2.531049         0.173323         0.140731
 O        -2.988210         1.355855        -0.497800
 C        -2.967579         0.336954         1.586258
 C        -4.641988         0.498911         1.619479
 C        -5.259942         0.158229         2.980463
 O        -6.368369         0.553437         3.314041
 H         2.095024        -0.654126         0.428889
 H         1.789716        -0.679161        -1.254703
 H         1.865705         0.922782        -0.423338
 H        -3.035731        -0.733727        -0.176831
 H        -2.542264         1.259712        -1.385238
 H        -2.783949        -0.630531         2.066313
 H        -2.577299         1.305269         2.041776
 H        -4.685586         1.646002         1.445939
 H        -5.041813        -0.036092         0.804931
 H        -4.736923        -0.533682         3.672871
