19
Iteration:  4834
 C         1.215601         0.323130         0.429697
 C        -0.280982         0.223937         0.391086
 C        -1.463509         0.023260         0.311834
 C        -2.872795        -0.106140         0.204219
 O        -3.339333        -0.206694        -1.159600
 C        -3.542150         1.213066         0.807512
 C        -4.967428         1.044394         1.399734
 C        -4.995548         0.116070         2.636453
 O        -4.256617         0.328158         3.592768
 H         1.651148        -0.565603        -0.100338
 H         1.587578         1.306060         0.053035
 H         1.647845         0.194014         1.505711
 H        -3.237681        -1.114430         0.598889
 H        -2.716039         0.292581        -1.738760
 H        -3.102190         1.530183         1.759917
 H        -3.571363         2.107591         0.169285
 H        -5.481609         1.960939         1.640358
 H        -5.611544         0.757549         0.507004
 H        -5.735016        -0.759434         2.683048
