19
Iteration:  2336charge 0 multiplicity 1
 C         0.883699         0.369921         0.699936
 C        -0.437028         0.107896         0.211940
 C        -1.566966         0.037185        -0.279061
 C        -2.998817        -0.090756        -0.208251
 O        -3.644279         1.215441        -0.114816
 C        -3.094547        -0.780434         1.154005
 C        -4.443638        -0.592889         1.887895
 C        -4.960778         0.813096         2.160875
 O        -4.228745         1.578384         2.732105
 H         1.408757         1.155219         0.166139
 H         0.948216         0.496884         1.893057
 H         1.276039        -0.610594         0.380613
 H        -3.681919        -0.645609        -0.965817
 H        -3.043608         1.708277         0.513379
 H        -2.717611        -1.786362         0.761647
 H        -2.225288        -0.593570         1.884696
 H        -5.317418        -1.190429         1.373274
 H        -4.315738        -1.007625         2.862894
 H        -5.942815         1.198744         1.877596
