19
Iteration:  2600
 C         1.250559         0.493262         0.106225
 C        -0.124597         0.080112        -0.090429
 C        -1.312573        -0.252236        -0.067228
 C        -2.763814        -0.207238        -0.001335
 O        -3.185808         0.873906        -0.761876
 C        -3.302065        -0.188387         1.431285
 C        -4.882834        -0.309993         1.666928
 C        -5.370500         0.839660         2.568043
 O        -4.785798         1.276173         3.526823
 H         1.504260         1.513079         0.315726
 H         1.769637         0.048431         0.996146
 H         1.852883         0.340870        -0.759553
 H        -3.286234        -1.046306        -0.483668
 H        -2.621934         1.675728        -0.626308
 H        -2.752440        -0.964505         1.967974
 H        -2.900737         0.782589         1.940255
 H        -5.503702        -0.214512         0.686995
 H        -4.960802        -1.370575         2.139910
 H        -6.485037         1.134216         2.391193
