19
Iteration:  3595charge 0 multiplicity 1
 C         1.353147         0.456960        -0.165852
 C        -0.082223         0.224087        -0.111921
 C        -1.220901        -0.272214         0.162388
 C        -2.699227        -0.353459         0.251159
 O        -3.096442         0.454076        -0.864928
 C        -3.222256         0.182542         1.477338
 C        -4.888639         0.254997         1.402115
 C        -5.481910         0.854606         2.598118
 O        -5.112721         0.937871         3.749361
 H         1.773104         0.493041        -1.235217
 H         1.553025         1.486214         0.206740
 H         2.027752        -0.254701         0.428411
 H        -3.019187        -1.358970         0.097667
 H        -2.298188         0.797919        -1.298317
 H        -2.996502        -0.271572         2.515285
 H        -2.926295         1.248891         1.479537
 H        -5.094342         0.740831         0.471471
 H        -5.212947        -0.744730         1.531796
 H        -6.563367         1.163030         2.476381
