19
Iteration:  3784charge 0 multiplicity 1
 C         1.260802         0.290822         0.404238
 C        -0.258231         0.211379         0.387957
 C        -1.428975        -0.025462         0.312797
 C        -2.853367        -0.074568         0.121761
 O        -3.363908        -0.143519        -1.206700
 C        -3.494787         1.068412         0.764072
 C        -4.866692         0.880922         1.374488
 C        -5.121323         0.417936         2.804717
 O        -4.349107         0.429494         3.707539
 H         1.635642         0.860990        -0.441513
 H         1.636605         0.664545         1.427035
 H         1.533418        -0.751005         0.282447
 H        -3.224957        -1.019406         0.631544
 H        -2.958002        -0.878638        -1.702989
 H        -2.760940         1.541473         1.387041
 H        -3.475985         1.719807        -0.143269
 H        -5.423086         1.712592         0.948659
 H        -5.255220         0.092811         0.836755
 H        -6.136877        -0.031455         2.903455
