19
Iteration:   260
 C         1.468106        -0.253303        -0.124668
 C         0.073080         0.142791        -0.127037
 C        -1.162858         0.163734        -0.012730
 C        -2.558247         0.208391         0.063465
 O        -3.331885         1.364790        -0.581044
 C        -3.085141        -0.119299         1.419548
 C        -4.522169         0.034513         1.531338
 C        -5.018773         0.655681         2.895933
 O        -6.162145         0.570749         3.373712
 H         1.886684         0.097336         0.827363
 H         1.463919        -1.456296        -0.105211
 H         2.069395         0.009727        -1.025705
 H        -3.058935        -0.485515        -0.604535
 H        -2.661675         2.076521        -0.691464
 H        -2.592355        -1.190158         1.816818
 H        -2.539732         0.506023         2.121672
 H        -4.698488         0.708029         0.621147
 H        -5.107388        -0.809285         1.270856
 H        -4.234793         1.351843         3.512115
