19
Iteration:  3484charge 0 multiplicity 1
 C         1.408281         0.057240        -0.422465
 C        -0.039920         0.224567        -0.172672
 C        -1.158288        -0.012336         0.210955
 C        -2.634718         0.016642         0.354591
 O        -3.079345         0.914726        -0.654428
 C        -3.252133        -0.012121         1.666647
 C        -4.749933        -0.255054         1.633411
 C        -5.581467         0.347237         2.740235
 O        -5.321865         1.456730         3.176037
 H         1.523133        -0.569491        -1.354585
 H         1.912414         1.006618        -0.601710
 H         1.910999        -0.426102         0.474115
 H        -2.844550        -0.927779        -0.112046
 H        -2.581974         1.738732        -0.492529
 H        -2.809407        -0.960230         2.132770
 H        -2.937670         0.830550         2.314173
 H        -5.188037         0.321423         0.740940
 H        -5.090321        -1.286566         1.407862
 H        -6.389436        -0.281545         3.189029
