19
Iteration:  2796charge 0 multiplicity 1
 C         1.409192        -0.005837        -0.251318
 C        -0.033097        -0.086110        -0.037042
 C        -1.264987        -0.144972         0.192831
 C        -2.735461         0.039924         0.117719
 O        -2.937096         0.683320        -1.189810
 C        -3.338078         0.886393         1.330605
 C        -4.636950        -0.146844         1.756484
 C        -5.261755         0.195188         3.175963
 O        -5.622656         1.296028         3.524131
 H         2.116979         0.642594         0.356224
 H         1.837565        -1.137033        -0.250087
 H         1.561302         0.238676        -1.342561
 H        -3.200404        -0.974177        -0.020107
 H        -2.350101         1.450746        -0.919685
 H        -2.726611         1.275234         2.168461
 H        -3.864269         1.634822         0.727118
 H        -5.342029        -0.082187         0.973238
 H        -4.371146        -1.149532         1.825455
 H        -5.391723        -0.657093         3.881437
