19
Iteration:  3780charge 0 multiplicity 1
 C         1.251069         0.296801         0.418500
 C        -0.235746         0.189563         0.386996
 C        -1.430991        -0.018487         0.289662
 C        -2.865800        -0.110139         0.129554
 O        -3.386750        -0.140372        -1.231289
 C        -3.482664         1.099723         0.785335
 C        -4.829024         0.856247         1.379874
 C        -5.147003         0.440541         2.803843
 O        -4.356168         0.432196         3.728207
 H         1.649508         0.895645        -0.427303
 H         1.604027         0.721776         1.324044
 H         1.660770        -0.731042         0.280724
 H        -3.135746        -1.062064         0.632472
 H        -2.917008        -0.839010        -1.715243
 H        -2.724178         1.658387         1.426361
 H        -3.434847         1.742104        -0.123567
 H        -5.444821         1.656528         0.938715
 H        -5.300905         0.013102         0.698663
 H        -6.178637        -0.055571         2.873719
