19
Iteration:  2864
 C         1.444296         0.158931        -0.064673
 C        -0.082345        -0.139185         0.070767
 C        -1.278582        -0.274012        -0.048842
 C        -2.715007        -0.021148         0.042073
 O        -3.179159         0.994669        -0.953314
 C        -3.359345         0.480974         1.336321
 C        -4.544461        -0.358666         1.916843
 C        -5.183989         0.313931         3.059662
 O        -5.407833         1.499176         3.246250
 H         2.052684         0.746039         0.656414
 H         1.877127        -0.935556        -0.201733
 H         1.423059         0.798212        -1.002719
 H        -3.293679        -0.983477        -0.124407
 H        -3.273344         0.677495        -1.874127
 H        -2.658466         0.322359         2.167304
 H        -3.587081         1.548556         1.132260
 H        -5.447398        -0.428750         1.379170
 H        -4.280765        -1.337200         2.089528
 H        -5.798706        -0.457821         3.514071
