19
Iteration:  3366
 C         1.235360        -0.223351         0.161580
 C        -0.150062         0.280345        -0.236896
 C        -1.355373         0.075904        -0.208003
 C        -2.835470         0.138701         0.014596
 O        -3.367703         1.303235        -0.550007
 C        -3.036511         0.028148         1.594770
 C        -4.320867        -0.630105         2.072884
 C        -5.345859         0.284377         2.613706
 O        -5.199951         1.454295         2.910689
 H         1.229418        -1.259784        -0.254936
 H         2.071948         0.250621        -0.356128
 H         1.304319         0.043000         1.208563
 H        -3.423185        -0.704271        -0.546637
 H        -2.882098         2.136285        -0.559032
 H        -2.202021        -0.421195         2.119878
 H        -3.051360         1.059481         1.933656
 H        -4.853907        -1.067373         1.215710
 H        -4.065817        -1.661427         2.622549
 H        -6.356158        -0.146739         2.845816
