19
Iteration:  3348
 C         1.242826        -0.141502         0.129351
 C        -0.247024         0.024830        -0.017134
 C        -1.404699         0.147744        -0.276100
 C        -2.793688         0.160888        -0.028287
 O        -3.446829         1.353238        -0.603117
 C        -2.983702         0.031017         1.540994
 C        -4.292671        -0.664987         2.072713
 C        -5.361406         0.306165         2.580334
 O        -5.158508         1.449130         2.946190
 H         1.536563        -1.192538        -0.021164
 H         1.913252         0.535661        -0.528831
 H         1.584554         0.084606         1.192617
 H        -3.158691        -0.696448        -0.486730
 H        -2.975741         1.972310        -0.025750
 H        -2.047813        -0.474847         1.832567
 H        -2.884008         1.061960         1.956502
 H        -4.754251        -1.357776         1.337781
 H        -4.055083        -1.285369         2.914425
 H        -6.413148        -0.059860         2.465826
