19
Iteration:  2020
 C         1.491064        -0.162228        -0.209248
 C         0.078617        -0.038162         0.082273
 C        -1.112433         0.218071         0.155678
 C        -2.611073         0.165363         0.230549
 O        -3.204471         0.977228        -0.874536
 C        -3.317856         0.287962         1.590644
 C        -4.730444        -0.098622         1.405205
 C        -5.658133         0.318580         2.629924
 O        -5.304229         1.094925         3.534595
 H         1.690474        -0.331760        -1.237084
 H         2.153637         0.597256         0.303837
 H         1.777062        -1.025051         0.380623
 H        -2.632774        -0.821711        -0.273062
 H        -2.895220         1.904816        -0.808397
 H        -2.880123        -0.363241         2.338804
 H        -3.198595         1.320725         1.939361
 H        -5.184471         0.341388         0.527722
 H        -4.736168        -1.154882         1.191928
 H        -6.645076        -0.141188         2.634234
