19
Iteration:  2002charge 0 multiplicity 1
 C         1.392533        -0.265582        -0.074040
 C         0.015757         0.007622         0.121660
 C        -1.129725         0.326752         0.279175
 C        -2.605594         0.125228         0.080547
 O        -3.285201         0.921456        -0.832106
 C        -3.182522         0.433473         1.426702
 C        -4.779937         0.033786         1.410486
 C        -5.578918         0.218706         2.624378
 O        -5.211814         1.017420         3.492648
 H         1.520022        -0.338169        -1.205809
 H         2.003893         0.567053         0.260779
 H         1.990056        -1.096383         0.389161
 H        -2.942444        -0.946249        -0.029038
 H        -2.873573         1.814934        -0.815071
 H        -2.728197        -0.143318         2.276721
 H        -2.999458         1.467875         1.793365
 H        -5.258813         0.459895         0.488188
 H        -4.872897        -1.089307         1.250727
 H        -6.478248        -0.506817         2.773308
