19
Iteration:   342charge 0 multiplicity 1
 C         1.520479        -0.111331        -0.378318
 C         0.056510        -0.286327        -0.170209
 C        -1.105768        -0.079618         0.016401
 C        -2.558171         0.194351         0.176073
 O        -2.944207         1.417689        -0.539031
 C        -3.088247         0.315346         1.563468
 C        -4.728420         0.315750         1.589197
 C        -5.191793         0.604300         2.960375
 O        -6.265986         0.259507         3.336493
 H         1.987759         0.564851         0.399304
 H         2.091295        -1.002025        -0.434676
 H         1.613384         0.451854        -1.330075
 H        -3.055773        -0.585348        -0.453852
 H        -2.878393         1.276240        -1.515118
 H        -2.736869        -0.387432         2.205179
 H        -2.898169         1.336294         1.948034
 H        -4.835204         1.243179         0.887628
 H        -5.308074        -0.611100         1.215378
 H        -4.510133         1.192958         3.420805
