19
Iteration:  3124
 C         1.077602         0.841525        -0.418388
 C        -0.100028         0.038067        -0.116751
 C        -1.275848        -0.281280         0.186853
 C        -2.761860        -0.311678         0.436826
 O        -3.204900         1.037162         0.311882
 C        -3.369140        -0.875383         1.764668
 C        -4.886421        -0.525303         1.778838
 C        -5.322153         0.844201         2.125680
 O        -4.605666         1.769537         2.425472
 H         2.085865         0.416193         0.120721
 H         1.354432         0.694883        -1.473039
 H         0.993854         1.939557        -0.097211
 H        -3.204554        -0.985867        -0.330130
 H        -2.450090         1.328130        -0.244521
 H        -3.112421        -1.979434         1.707797
 H        -2.804754        -0.422301         2.600808
 H        -5.288845        -0.701808         0.818131
 H        -5.549250        -1.128283         2.348746
 H        -6.391387         0.954717         1.836642
