19
Iteration:  1974
 C         1.396539        -0.328231         0.094149
 C         0.024271         0.125502         0.182951
 C        -1.167789         0.223368         0.056511
 C        -2.652715         0.217127         0.097307
 O        -3.284150         0.892438        -1.025912
 C        -3.224613         0.589090         1.452621
 C        -4.835040         0.052517         1.302794
 C        -5.481447         0.136508         2.758781
 O        -5.114471         0.921838         3.596299
 H         1.562215        -0.576505        -0.943579
 H         2.157216         0.380086         0.491268
 H         1.662590        -1.132555         0.769425
 H        -2.981485        -0.840073         0.072774
 H        -2.970590         1.837771        -1.026246
 H        -2.796156         0.068334         2.316094
 H        -3.320338         1.645780         1.692408
 H        -5.327253         0.635105         0.528768
 H        -4.906045        -0.980472         0.916649
 H        -6.419077        -0.489484         2.887753
