19
Iteration:  2743charge 0 multiplicity 1
 C         1.354892        -0.331182        -0.226682
 C        -0.016966         0.077723         0.114019
 C        -1.173884         0.375813         0.167516
 C        -2.648426         0.203657         0.104211
 O        -3.228406         0.579928        -1.161457
 C        -3.357072         0.653779         1.396967
 C        -4.577443        -0.166621         1.686760
 C        -5.277860         0.173051         3.021822
 O        -5.458636         1.294559         3.496526
 H         2.008528         0.403463         0.318969
 H         1.575366        -1.353633         0.292635
 H         1.712872        -0.127208        -1.275717
 H        -2.564158        -0.916394        -0.009999
 H        -2.861257         1.505278        -1.237009
 H        -2.664568         0.637504         2.249320
 H        -3.701852         1.674997         1.118727
 H        -5.271712         0.140443         0.917503
 H        -4.523361        -1.225330         1.638902
 H        -5.378515        -0.793448         3.620094
