19
Iteration:  4095charge 0 multiplicity 1
 C         1.220829         0.715902        -0.470528
 C        -0.065567         0.288110         0.197541
 C        -1.085101        -0.193132         0.615583
 C        -2.670783        -0.243944         0.698503
 O        -3.207867        -0.378139        -0.707325
 C        -3.067409         1.145360         1.285937
 C        -4.708346         1.225057         1.390124
 C        -5.582182         0.588732         2.423120
 O        -5.155312        -0.140566         3.270906
 H         1.375444         1.761848        -0.130403
 H         2.075296         0.104082        -0.366219
 H         1.148309         0.750772        -1.594942
 H        -3.016242        -1.063984         1.408519
 H        -3.475866        -1.340774        -0.622452
 H        -2.448189         1.284401         2.172996
 H        -2.768409         1.978427         0.687746
 H        -4.754951         2.330572         1.354693
 H        -5.112277         0.918334         0.346150
 H        -6.712920         0.944744         2.231649
