19
Iteration:  4814
 C         1.157762         0.374732         0.400043
 C        -0.292356         0.003052         0.277651
 C        -1.525161         0.099433         0.370325
 C        -2.934161         0.046167         0.148608
 O        -3.094655        -0.254737        -1.271345
 C        -3.587012         1.200634         0.909374
 C        -5.032205         1.027238         1.463661
 C        -4.984899         0.164253         2.657565
 O        -4.277971         0.326965         3.640403
 H         1.587351        -0.465416        -0.176353
 H         1.424509         1.251532        -0.130563
 H         1.470180         0.432522         1.531411
 H        -3.507712        -0.848477         0.610717
 H        -2.171004        -0.190154        -1.512737
 H        -3.027264         1.409503         1.915235
 H        -3.549390         2.079825         0.229421
 H        -5.432000         2.023766         1.752160
 H        -5.806653         0.659563         0.706834
 H        -5.631589        -0.788650         2.613297
