19
Iteration:  2450
 C         1.199931         0.605914         0.165299
 C        -0.219002         0.267945         0.365166
 C        -1.399919         0.001379         0.143821
 C        -2.852664        -0.220156         0.005714
 O        -3.522116         0.877283        -0.542073
 C        -3.569368        -0.860491         1.359628
 C        -4.931020        -0.211023         1.423893
 C        -5.042616         0.974016         2.422801
 O        -4.149466         1.276702         3.173674
 H         1.227458         1.699893        -0.211753
 H         1.862097         0.634401         1.045497
 H         1.916570         0.007110        -0.504965
 H        -2.991923        -1.112946        -0.605392
 H        -2.808862         1.464493        -0.865234
 H        -3.574008        -1.971809         1.280938
 H        -3.072962        -0.691910         2.314206
 H        -5.450465        -0.052047         0.495151
 H        -5.535539        -0.817575         2.140486
 H        -6.038796         1.457144         2.345305
