19
Iteration:  2613
 C         1.275193         0.394877         0.118793
 C        -0.118467         0.092432        -0.066194
 C        -1.288877        -0.209657        -0.034837
 C        -2.744583        -0.220379        -0.038382
 O        -3.281983         0.912683        -0.836434
 C        -3.250415        -0.088778         1.421388
 C        -4.726051        -0.227347         1.685905
 C        -5.444567         0.737164         2.591483
 O        -4.834553         1.253974         3.532809
 H         1.223645         1.425752         0.333272
 H         1.623881        -0.263180         0.882106
 H         1.822751         0.099739        -0.756541
 H        -3.026190        -1.155938        -0.589356
 H        -2.856103         1.677152        -0.418702
 H        -2.647636        -0.790655         2.120582
 H        -2.904879         0.953798         1.856237
 H        -5.342737        -0.578121         0.755627
 H        -4.976502        -1.104252         2.451582
 H        -6.479060         1.095920         2.251767
