19
Iteration:  4256
 C         1.310491         0.365852        -0.551972
 C        -0.059969         0.211512        -0.150386
 C        -1.124856         0.186791         0.467023
 C        -2.482175         0.044523         1.026117
 O        -3.442389        -0.403656        -0.055166
 C        -3.157913         1.427785         1.412875
 C        -4.745699         1.387882         1.332071
 C        -5.524773         0.222911         2.034812
 O        -5.130562        -0.340716         3.023959
 H         1.951720         0.731555         0.273891
 H         1.710838        -0.522707        -0.992054
 H         1.359616         1.001869        -1.462411
 H        -2.469353        -0.698115         1.810279
 H        -2.721740        -0.689982        -0.644616
 H        -2.745319         1.768061         2.385313
 H        -2.825167         2.181607         0.682440
 H        -5.163992         2.218905         1.893129
 H        -5.032374         1.513141         0.306391
 H        -6.493674        -0.080906         1.592368
