19
Iteration:  4866charge 0 multiplicity 1
 C         1.314004         0.285181         0.539819
 C        -0.236077         0.313366         0.430522
 C        -1.400130         0.054493         0.166966
 C        -2.812439        -0.076151         0.203258
 O        -3.645012        -0.258799        -0.993589
 C        -3.486903         1.287587         0.870276
 C        -4.835185         0.923603         1.222214
 C        -5.028532         0.175738         2.580424
 O        -4.238900         0.267889         3.507313
 H         1.635166        -0.369854        -0.280929
 H         1.843456         1.254631         0.290960
 H         1.522884         0.047588         1.651020
 H        -3.187091        -0.897014         0.881952
 H        -3.737188         0.603612        -1.387677
 H        -3.023322         1.411415         1.859530
 H        -3.292319         2.132266         0.149479
 H        -5.457154         1.796096         1.468791
 H        -5.296310         0.237100         0.432600
 H        -6.029258        -0.225268         2.724382
