19
Iteration:  1293
 C         1.360157        -0.103532         0.251953
 C        -0.072119         0.083462         0.118732
 C        -1.281843         0.065888        -0.198395
 C        -2.706516         0.099862        -0.302029
 O        -3.186800         1.594646        -0.444426
 C        -3.220144        -0.329557         1.145957
 C        -4.720218         0.025037         1.539944
 C        -4.874261         0.195667         2.929472
 O        -5.652025         1.042217         3.384123
 H         1.442462        -1.063181         0.750398
 H         1.926602        -0.160220        -0.710539
 H         1.869623         0.609464         0.912247
 H        -3.142312        -0.329428        -1.161499
 H        -3.412805         1.834832        -1.387368
 H        -2.778630        -1.447825         1.107138
 H        -2.576860         0.125064         1.992985
 H        -5.000003         0.899679         0.981838
 H        -5.297947        -0.865284         1.137774
 H        -4.455995        -0.445839         3.695358
