19
Iteration:  4558
 C         1.186427         0.448491         0.010043
 C        -0.192990         0.116148         0.240600
 C        -1.405799        -0.042915         0.373917
 C        -2.817423        -0.128122         0.434595
 O        -3.305827        -0.058058        -0.863016
 C        -3.230448         1.054322         1.196021
 C        -4.812664         1.046775         1.317016
 C        -5.320817         0.363522         2.499909
 O        -4.579822         0.085379         3.458152
 H         1.919674         0.112335         0.758241
 H         1.530059         0.006971        -1.000920
 H         1.219291         1.512006        -0.129078
 H        -3.040704        -1.070340         0.906739
 H        -3.031912         0.758693        -1.265653
 H        -2.823858         1.256340         2.199699
 H        -2.879759         1.859197         0.500701
 H        -5.242757         2.027882         1.155201
 H        -5.041311         0.532386         0.290871
 H        -6.309966        -0.035980         2.383487
