19
Iteration:  3184charge 0 multiplicity 1
 C         1.160979         0.524086        -0.555436
 C        -0.049784         0.153719         0.135755
 C        -1.243170        -0.087221         0.414794
 C        -2.772189        -0.170824         0.375669
 O        -3.280265         1.099549        -0.053554
 C        -3.278636        -0.693625         1.724775
 C        -4.861818        -0.658177         1.714339
 C        -5.346300         0.787843         2.105845
 O        -4.669103         1.660664         2.645788
 H         1.830821        -0.223908        -0.336807
 H         0.935253         0.580248        -1.646032
 H         1.584122         1.453820        -0.264905
 H        -2.945951        -1.015189        -0.440167
 H        -3.663149         1.464862         0.786049
 H        -2.933251        -1.695651         2.001917
 H        -2.950753         0.011624         2.529472
 H        -5.313078        -1.124402         0.720758
 H        -5.324392        -1.215886         2.643881
 H        -6.325985         1.120871         1.714379
