19
Iteration:  4450charge 0 multiplicity 1
 C         1.408201         0.270992        -0.301214
 C        -0.047725         0.484794         0.075402
 C        -1.233568         0.214263         0.313735
 C        -2.643769         0.095573         0.593786
 O        -3.399742        -0.494816        -0.554721
 C        -3.244452         1.316173         1.347797
 C        -4.750861         1.315084         1.476708
 C        -5.464284         0.506522         2.515927
 O        -4.977660        -0.431627         3.069498
 H         1.997838         0.129625         0.623943
 H         1.232017        -0.657086        -0.896885
 H         1.910443         1.008534        -0.932957
 H        -2.797487        -0.771971         1.312005
 H        -3.072058        -1.416652        -0.556119
 H        -2.883377         1.388270         2.389867
 H        -2.990097         2.279948         0.808008
 H        -5.125375         2.373825         1.613778
 H        -5.047480         0.986507         0.509493
 H        -6.475172         0.748648         2.799069
