19
Iteration:    71charge 0 multiplicity 1
 C         1.486795        -0.002905        -0.048570
 C         0.060508         0.070712         0.090329
 C        -1.157736        -0.121661        -0.000102
 C        -2.646749         0.098904        -0.158554
 O        -2.982361         1.431460        -0.569580
 C        -3.264690        -0.219552         1.260590
 C        -4.796454         0.243160         1.442766
 C        -5.058977         0.800754         2.852418
 O        -5.923455         0.414152         3.632043
 H         2.048100         0.380647         0.864075
 H         1.795254        -1.058404        -0.269181
 H         1.805636         0.577687        -0.956096
 H        -3.074037        -0.666781        -0.942398
 H        -3.813925         1.361891        -1.043441
 H        -3.357549        -1.358203         1.398445
 H        -2.693702         0.335242         1.982938
 H        -4.898023         1.137588         0.715273
 H        -5.575695        -0.535341         1.123852
 H        -4.238685         1.621566         3.053308
