19
Iteration:  3211charge 0 multiplicity 1
 C         1.278390         0.361700        -0.501339
 C         0.018340         0.017415         0.138052
 C        -1.182975         0.129868         0.297283
 C        -2.713240        -0.055038         0.311161
 O        -3.559946         1.051211        -0.104878
 C        -3.205268        -0.610454         1.736938
 C        -4.752869        -0.553533         1.747281
 C        -5.414087         0.703911         2.171422
 O        -4.801223         1.607414         2.706922
 H         2.022137        -0.535863        -0.311970
 H         1.060053         0.640147        -1.532219
 H         1.674475         1.283749         0.038675
 H        -2.861454        -0.865228        -0.347258
 H        -3.050533         1.814379         0.275732
 H        -3.033848        -1.692068         1.785978
 H        -2.749389        -0.157546         2.612040
 H        -5.107166        -0.911213         0.807179
 H        -5.093794        -1.225206         2.570218
 H        -6.425489         0.972581         1.832523
