19
Iteration:  1740
 C         1.185751         0.174125         0.769341
 C        -0.134372         0.068447         0.137296
 C        -1.320103        -0.007982        -0.262186
 C        -2.806853        -0.111974        -0.213721
 O        -3.437373         0.927649        -1.034940
 C        -3.226613         0.110052         1.206935
 C        -4.644200         0.603291         1.316118
 C        -5.239913         0.734126         2.715941
 O        -4.786503         0.267731         3.738979
 H         1.862262        -0.546522         0.262457
 H         1.456704         1.178475         0.620843
 H         1.097897         0.031626         1.871649
 H        -3.231713        -1.112840        -0.476131
 H        -2.653367         1.382682        -1.329042
 H        -2.924064        -0.787633         1.819630
 H        -2.669901         0.808830         1.857473
 H        -4.468561         1.495840         0.733721
 H        -5.363376         0.131659         0.692715
 H        -6.293066         1.185876         2.812054
