19
Iteration:  1371charge 0 multiplicity 1
 C         1.363116         0.000888         0.294970
 C        -0.068031         0.104406        -0.227571
 C        -1.274534        -0.149516        -0.261955
 C        -2.689704         0.132362        -0.288381
 O        -2.947538         1.485985        -0.598423
 C        -3.257283        -0.265221         1.217609
 C        -4.717054         0.063460         1.536617
 C        -5.061919         0.169991         3.014919
 O        -5.747221         1.062112         3.515749
 H         1.593000        -1.040764         0.619806
 H         2.044668         0.233059        -0.487187
 H         1.528076         0.726613         1.119082
 H        -3.214967        -0.315637        -1.085357
 H        -2.942804         2.015497         0.224479
 H        -2.860506        -1.226402         1.698082
 H        -2.660568         0.358994         1.977408
 H        -5.153086         0.997116         1.111034
 H        -5.243430        -0.793618         1.102360
 H        -4.533458        -0.621474         3.770096
