19
Iteration:  1009
 C         1.555010        -0.157511        -0.330636
 C         0.115146        -0.328291        -0.426487
 C        -1.060864         0.071729        -0.058223
 C        -2.575024         0.163723         0.166096
 O        -3.082720         1.344028        -0.498865
 C        -2.966088         0.305981         1.645594
 C        -4.542680         0.523017         1.699025
 C        -5.260204         0.264777         3.065248
 O        -6.463670         0.472477         3.201247
 H         1.874647        -0.454433         0.640627
 H         2.136306        -0.648002        -1.197679
 H         1.716674         0.916951        -0.433839
 H        -3.068387        -0.628450        -0.288787
 H        -2.709385         1.430089        -1.390144
 H        -2.506265        -0.523587         2.259978
 H        -2.403687         1.147575         2.001778
 H        -4.719048         1.572443         1.437834
 H        -5.162328         0.033565         0.956917
 H        -4.650371        -0.278573         3.821928
