19
Iteration:  4428charge 0 multiplicity 1
 C         1.414547         0.245080        -0.284542
 C         0.030793         0.322108         0.097772
 C        -1.176685         0.361678         0.115367
 C        -2.607202         0.069471         0.693652
 O        -3.528082        -0.398398        -0.251903
 C        -3.206315         1.337535         1.292351
 C        -4.834799         1.359016         1.387322
 C        -5.418304         0.450794         2.437553
 O        -4.988129        -0.524090         3.008933
 H         2.134387         0.370966         0.539725
 H         1.553010        -0.614219        -1.010919
 H         1.599654         1.167314        -0.846813
 H        -2.411029        -0.741129         1.486266
 H        -3.344059        -1.288172        -0.581286
 H        -2.899823         1.558008         2.336751
 H        -2.869630         2.138643         0.573991
 H        -5.177677         2.421347         1.532738
 H        -5.214176         1.008683         0.465970
 H        -6.544984         0.673214         2.696669
