19
Iteration:  2690
 C         1.376710        -0.242535         0.069475
 C         0.029446         0.197707        -0.131722
 C        -1.194960         0.348276        -0.018460
 C        -2.637553         0.074897         0.095079
 O        -3.565158         0.668760        -0.878681
 C        -3.211044         0.466946         1.439395
 C        -4.540579        -0.252464         1.624526
 C        -5.350651         0.285008         2.802005
 O        -5.201468         1.327592         3.447905
 H         1.880285         0.529662         0.627302
 H         1.246314        -1.032120         0.763628
 H         1.925426        -0.540748        -0.827396
 H        -2.695954        -1.017629        -0.139402
 H        -3.147649         1.466682        -1.301701
 H        -2.623379         0.139741         2.343180
 H        -3.011179         1.543488         1.651372
 H        -5.307847         0.082836         0.800743
 H        -4.495123        -1.428441         1.596447
 H        -6.179701        -0.440678         2.981983
