19
Iteration:   947charge 0 multiplicity 1
 C         1.350244        -0.333126        -0.423786
 C         0.109609         0.044677         0.009233
 C        -1.104784         0.083571         0.069314
 C        -2.540018         0.201475         0.064872
 O        -3.075057         1.303482        -0.539081
 C        -3.003500         0.225760         1.502092
 C        -4.583713         0.528293         1.601984
 C        -5.139048         0.443536         2.992873
 O        -6.318439         0.294155         3.219984
 H         2.060324        -0.715964         0.335463
 H         1.362120        -1.088674        -1.177822
 H         1.939902         0.519149        -0.814953
 H        -3.072389        -0.840060        -0.189968
 H        -2.363793         1.587514        -1.113270
 H        -2.772559        -0.777521         1.886321
 H        -2.515279         1.058786         2.103567
 H        -4.817761         1.669376         1.545034
 H        -5.109860        -0.210799         0.965574
 H        -4.526218         0.660238         3.942714
