19
Iteration:  1340
 C         1.299091         0.009140         0.352449
 C        -0.080241        -0.111142        -0.146926
 C        -1.285034         0.026331        -0.332810
 C        -2.716972         0.173678        -0.218700
 O        -3.188306         1.474317        -0.450187
 C        -3.190340        -0.343668         1.268518
 C        -4.598737         0.121214         1.436200
 C        -4.941927         0.226497         2.911938
 O        -5.669133         1.016252         3.418647
 H         1.752022        -0.897622         0.849695
 H         1.950381         0.242060        -0.434514
 H         1.394196         0.856444         1.070666
 H        -3.193861        -0.445004        -1.004824
 H        -2.499216         2.146614        -0.307120
 H        -3.167391        -1.467189         1.442990
 H        -2.529287         0.288215         1.984501
 H        -5.032920         1.103179         1.046152
 H        -5.360317        -0.730461         1.098433
 H        -4.453341        -0.394030         3.677346
