19
Iteration:  4885charge 0 multiplicity 1
 C         1.212712         0.269633         0.598939
 C        -0.183256         0.160343         0.289773
 C        -1.364762         0.234956         0.034230
 C        -2.820049         0.091918         0.273127
 O        -3.608814        -0.367958        -0.909741
 C        -3.367085         1.214481         0.965668
 C        -4.939404         0.925498         1.230893
 C        -5.083428         0.325055         2.582248
 O        -4.217013         0.181316         3.442174
 H         1.876594        -0.180933        -0.172623
 H         1.479552         1.383631         0.574809
 H         1.374417         0.074662         1.632990
 H        -2.978891        -0.827089         0.812640
 H        -3.753217         0.355282        -1.519927
 H        -2.908270         1.308531         1.946465
 H        -3.400242         2.167201         0.375601
 H        -5.664960         1.784990         1.055006
 H        -5.182350         0.175924         0.462562
 H        -6.070708        -0.219840         2.785584
