19
Iteration:  3292
 C         1.354676        -0.019687         0.082936
 C        -0.145213        -0.003354        -0.134595
 C        -1.354379         0.187495        -0.196925
 C        -2.835164         0.095017         0.100462
 O        -3.546802         1.239168        -0.393559
 C        -3.007817        -0.187355         1.575816
 C        -4.396388        -0.649389         1.959177
 C        -5.334688         0.490960         2.344171
 O        -5.107946         1.517370         2.966877
 H         1.638075        -1.125732         0.053310
 H         1.908122         0.383870        -0.862247
 H         1.640537         0.552993         0.993950
 H        -3.086862        -0.782552        -0.395614
 H        -3.286762         1.917466         0.267944
 H        -2.116496        -0.813652         1.908095
 H        -2.896134         0.793146         2.110990
 H        -4.871555        -1.166087         1.145643
 H        -4.441126        -1.286215         2.808520
 H        -6.404339         0.251701         2.179122
