19
Iteration:  3203
 C         1.250584         0.394619        -0.520825
 C         0.024602         0.038151         0.187238
 C        -1.214873         0.042903         0.311700
 C        -2.675710        -0.050478         0.352048
 O        -3.525915         1.053614        -0.104205
 C        -3.294434        -0.616262         1.714175
 C        -4.767196        -0.585669         1.778574
 C        -5.356926         0.746917         2.104089
 O        -4.758172         1.621999         2.705259
 H         2.197067        -0.228553        -0.605754
 H         1.043426         0.631841        -1.595818
 H         1.644893         1.339018        -0.112079
 H        -2.823416        -0.853016        -0.365571
 H        -3.244973         1.771357         0.532622
 H        -2.951147        -1.699206         1.773201
 H        -3.002479        -0.139094         2.673698
 H        -5.330592        -0.877269         0.920652
 H        -5.114760        -1.324275         2.418853
 H        -6.464882         0.715510         1.794577
