19
Iteration:  3664charge 0 multiplicity 1
 C         1.308770         0.398144         0.176789
 C        -0.157772         0.299885         0.249336
 C        -1.293569        -0.010943         0.047004
 C        -2.666644        -0.300374         0.068969
 O        -3.435621         0.072505        -1.123255
 C        -3.167064         0.432001         1.331283
 C        -4.807849         0.517881         1.305169
 C        -5.376066         0.826374         2.718173
 O        -4.803351         0.713485         3.775868
 H         1.533248         0.614384        -0.855242
 H         1.582707         1.290256         0.812795
 H         1.823202        -0.490235         0.476257
 H        -2.667140        -1.364652         0.224884
 H        -3.014982        -0.525468        -1.768238
 H        -2.737110        -0.127582         2.123543
 H        -2.831953         1.462665         1.456351
 H        -5.162820         1.474890         0.810163
 H        -5.354067        -0.369107         0.938658
 H        -6.429780         1.236396         2.757576
