19
Iteration:  3758
 C         1.267431         0.407129         0.467708
 C        -0.162300        -0.037074         0.314336
 C        -1.360951        -0.060147         0.034183
 C        -2.787248        -0.045013         0.105743
 O        -3.434213        -0.169313        -1.200368
 C        -3.462011         1.127554         0.907977
 C        -4.881805         0.762233         1.355744
 C        -5.137621         0.438793         2.770348
 O        -4.459541         0.496202         3.803790
 H         1.519398         0.985803        -0.444714
 H         1.324059         0.965835         1.359705
 H         1.877446        -0.506401         0.509850
 H        -3.159678        -0.930992         0.677018
 H        -2.808185        -0.518845        -1.860395
 H        -2.791325         1.272194         1.821419
 H        -3.249499         2.015550         0.288754
 H        -5.522044         1.596193         1.093248
 H        -5.331451        -0.054816         0.678177
 H        -6.256013         0.534538         2.927712
