19
Iteration:  1659
 C         1.423338         0.113917         0.111705
 C        -0.083521         0.120205         0.224476
 C        -1.250421        -0.123741         0.109900
 C        -2.741838        -0.002083        -0.062759
 O        -2.993872         1.117726        -0.880504
 C        -3.370373         0.252039         1.243663
 C        -4.925821         0.284948         1.345496
 C        -5.441839         0.638460         2.682517
 O        -5.077409         0.356805         3.801144
 H         1.819320        -0.771326        -0.357952
 H         1.897007         0.957451        -0.483238
 H         1.946856         0.077996         1.048857
 H        -3.142200        -0.782585        -0.640383
 H        -2.579980         0.934737        -1.742882
 H        -2.982477        -0.528687         1.901492
 H        -3.081466         1.245236         1.520772
 H        -5.255440         0.950083         0.541285
 H        -5.411161        -0.678224         1.191366
 H        -6.386924         1.344315         2.623366
