19
Iteration:  3943charge 0 multiplicity 1
 C         1.248843         0.214836         0.482056
 C        -0.135312         0.341712         0.111762
 C        -1.376434         0.323072         0.053813
 C        -2.783634         0.016780         0.439600
 O        -3.384395        -0.797535        -0.672655
 C        -3.582441         1.473203         0.917020
 C        -4.989275         1.256024         1.382074
 C        -5.187719         0.423993         2.589518
 O        -4.250505        -0.072737         3.161355
 H         1.901488         1.128625         0.533996
 H         1.165483        -0.116932         1.500889
 H         1.790860        -0.563641        -0.134111
 H        -2.882526        -0.697133         1.236984
 H        -3.318219        -0.094627        -1.354591
 H        -2.845291         2.060324         1.510773
 H        -3.736977         2.183529         0.075491
 H        -5.391993         2.212724         1.764040
 H        -5.628232         0.853878         0.710540
 H        -6.206815         0.043736         2.791776
