19
Iteration:  4821charge 0 multiplicity 1
 C         1.170465         0.293801         0.403216
 C        -0.258263         0.130371         0.342540
 C        -1.467664         0.070481         0.334819
 C        -2.998700         0.000688         0.209776
 O        -3.181955        -0.240548        -1.258783
 C        -3.610892         1.201246         0.910975
 C        -5.023631         1.019068         1.388509
 C        -4.940884         0.163315         2.631794
 O        -4.279508         0.322875         3.627559
 H         1.883186        -0.342931        -0.156050
 H         1.363382         1.338027        -0.052986
 H         1.395740         0.437257         1.476760
 H        -3.352592        -0.848308         0.826505
 H        -2.324120         0.034166        -1.600170
 H        -2.883355         1.303260         1.673265
 H        -3.387761         2.011604         0.203433
 H        -5.209941         1.986587         1.859468
 H        -5.819778         0.572436         0.780598
 H        -5.713983        -0.653001         2.599753
