19
Iteration:  2673charge 0 multiplicity 1
 C         1.417906        -0.119798         0.136421
 C        -0.046043         0.073145        -0.033047
 C        -1.250577         0.330443        -0.150216
 C        -2.695552         0.044263         0.033333
 O        -3.574373         0.706033        -0.852589
 C        -3.096486         0.316956         1.472665
 C        -4.551479        -0.142583         1.659842
 C        -5.459964         0.339574         2.761628
 O        -5.110546         1.285940         3.437378
 H         2.122396         0.722306         0.435109
 H         1.734411        -0.959930         0.829656
 H         1.820711        -0.293014        -0.894534
 H        -2.866932        -1.018751        -0.243914
 H        -3.183579         1.573867        -1.126135
 H        -2.293788        -0.135070         2.080916
 H        -3.178924         1.411089         1.589735
 H        -5.001402        -0.188680         0.716662
 H        -4.555496        -1.150554         2.022875
 H        -6.473289        -0.161940         2.834801
