19
Iteration:   639
 C         1.236825        -0.532751         0.394855
 C        -0.119279        -0.104473        -0.000505
 C        -1.302081         0.015432        -0.213642
 C        -2.738914         0.506431        -0.205887
 O        -2.983643         1.678433        -1.073044
 C        -3.165845         0.430677         1.232675
 C        -4.651411         0.409499         1.565004
 C        -5.009829         0.602031         3.062863
 O        -5.697678        -0.239941         3.662645
 H         1.420769        -0.214626         1.407378
 H         1.331939        -1.692128         0.290541
 H         1.974999        -0.128870        -0.303201
 H        -3.312583        -0.392951        -0.740118
 H        -2.166717         2.079691        -1.433192
 H        -2.743491        -0.487477         1.700199
 H        -2.774129         1.359099         1.831586
 H        -5.185492         1.252788         1.111862
 H        -5.170527        -0.495249         1.414271
 H        -4.493450         1.527176         3.428796
