19
Iteration:  3166
 C         1.092421         0.569060        -0.511058
 C        -0.270146         0.304305        -0.015238
 C        -1.272155        -0.177538         0.429231
 C        -2.687752        -0.280183         0.429992
 O        -3.111895         1.058180         0.033326
 C        -3.360435        -0.721918         1.729152
 C        -4.869252        -0.552952         1.803112
 C        -5.333344         0.792455         2.019797
 O        -4.626496         1.604074         2.554316
 H         1.825862        -0.239080        -0.138697
 H         0.979881         0.608754        -1.598884
 H         1.356173         1.617276        -0.168594
 H        -3.049611        -0.807209        -0.409626
 H        -3.034879         1.687632         0.796048
 H        -3.107077        -1.767424         1.875792
 H        -2.820680        -0.177932         2.492258
 H        -5.198833        -0.743917         0.800737
 H        -5.282036        -1.230685         2.554881
 H        -6.433128         1.041266         1.943974
