19
Iteration:  1269charge 0 multiplicity 1
 C         1.379010        -0.164837         0.238061
 C         0.001389         0.128751        -0.038686
 C        -1.177123         0.165859        -0.154640
 C        -2.689806         0.265578        -0.214374
 O        -3.069668         1.511546        -0.525228
 C        -3.284009        -0.281095         1.188273
 C        -4.862935        -0.134491         1.428232
 C        -4.980457         0.200328         2.981581
 O        -5.672579         1.067111         3.514277
 H         1.435647        -1.099183         0.749132
 H         1.955800        -0.249928        -0.757886
 H         1.881989         0.590901         0.831202
 H        -3.143200        -0.291885        -0.971082
 H        -3.412410         1.510996        -1.443891
 H        -2.886910        -1.405201         1.189296
 H        -2.793900         0.115176         2.094433
 H        -5.189495         0.627172         0.778627
 H        -5.293012        -1.031908         1.091373
 H        -4.333878        -0.392151         3.655203
