19
Iteration:  4330charge 0 multiplicity 1
 C         1.087515         0.323564        -0.521640
 C        -0.046116         0.313872         0.293784
 C        -1.205625         0.202365         0.662070
 C        -2.644929        -0.037337         0.908745
 O        -3.565131        -0.467522        -0.139297
 C        -3.205270         1.363300         1.226155
 C        -4.799858         1.628026         1.524268
 C        -5.288217         0.285853         1.947176
 O        -4.723100        -0.409998         2.789372
 H         2.032307         0.669493        -0.057893
 H         1.153306        -0.624315        -1.163826
 H         0.936188         1.098996        -1.313042
 H        -2.439068        -0.765758         1.733745
 H        -3.540323        -1.418374        -0.271484
 H        -2.561151         1.654599         2.083725
 H        -2.827508         1.949932         0.342735
 H        -4.766196         2.595431         2.223381
 H        -5.252061         1.861693         0.609858
 H        -5.899762        -0.253934         1.115892
