19
Iteration:  2878charge 0 multiplicity 1
 C         1.377857         0.101111        -0.041228
 C        -0.045318        -0.077840         0.073315
 C        -1.256657        -0.184040         0.034460
 C        -2.797593        -0.069838        -0.007210
 O        -3.326024         1.013084        -0.859499
 C        -3.308244         0.392992         1.364813
 C        -4.476252        -0.380278         1.872824
 C        -5.259518         0.312298         2.982377
 O        -5.270072         1.537652         3.169129
 H         1.725589         0.587381         0.904525
 H         2.070627        -0.823482        -0.229893
 H         1.666506         0.773566        -0.923811
 H        -3.217587        -1.053491        -0.406015
 H        -3.348139         0.647120        -1.759887
 H        -2.436072         0.480678         2.027294
 H        -3.663797         1.439154         1.291732
 H        -5.140810        -0.474207         1.041857
 H        -4.166867        -1.408913         2.234988
 H        -5.779905        -0.329530         3.680818
