19
Iteration:   771
 C         1.406158        -0.470911         0.095625
 C         0.015408        -0.055595        -0.049814
 C        -1.182010         0.015517         0.009525
 C        -2.734672         0.343643        -0.093583
 O        -2.909466         1.720423        -0.649401
 C        -3.390871         0.161059         1.263579
 C        -4.901575         0.278450         1.445412
 C        -5.229453         0.719607         2.764514
 O        -5.511974        -0.007700         3.673874
 H         1.721200        -0.430678         1.089069
 H         1.558667        -1.536881        -0.303439
 H         2.086470         0.145653        -0.483750
 H        -3.171799        -0.252508        -0.994140
 H        -2.362270         1.781710        -1.464239
 H        -3.109281        -0.744863         1.787521
 H        -2.904880         0.819671         2.052356
 H        -5.185232         1.195030         0.810859
 H        -5.553338        -0.508281         1.271726
 H        -5.147968         1.978416         2.806970
