19
Iteration:   930
 C         1.495849        -0.333339        -0.433762
 C         0.118398        -0.128497        -0.015924
 C        -1.047680         0.190259         0.066530
 C        -2.571083         0.202748         0.134341
 O        -3.090457         1.360157        -0.618040
 C        -3.135529         0.205661         1.593006
 C        -4.595337         0.512957         1.562507
 C        -5.188999         0.523025         2.961941
 O        -6.315054         0.219697         3.339731
 H         2.167769        -0.679530         0.392225
 H         1.510129        -1.173125        -1.185536
 H         1.916059         0.599750        -0.846562
 H        -2.928216        -0.578837        -0.542507
 H        -2.409070         1.760434        -1.177666
 H        -2.906764        -0.826149         1.908961
 H        -2.480516         1.019059         1.961480
 H        -4.645436         1.483336         1.131372
 H        -5.222243        -0.096495         0.822162
 H        -4.469548         0.890574         3.750995
