19
Iteration:  1724
 C         1.210614         0.216992         0.681362
 C        -0.100353        -0.054052         0.061909
 C        -1.320926        -0.000316        -0.212833
 C        -2.733904        -0.044117        -0.236848
 O        -3.415825         0.970623        -0.933850
 C        -3.205545         0.081230         1.305450
 C        -4.702010         0.552979         1.328555
 C        -5.253402         0.720892         2.661202
 O        -4.875957         0.290645         3.734172
 H         1.985751        -0.498043         0.421968
 H         1.610516         1.293299         0.465327
 H         1.015359        -0.017374         1.722883
 H        -3.003989        -1.072144        -0.527875
 H        -2.861561         1.273792        -1.661895
 H        -3.099474        -0.780475         1.965056
 H        -2.498049         0.838300         1.661881
 H        -5.089290         1.552940         1.006279
 H        -5.205379        -0.270484         0.695232
 H        -5.925722         1.551961         2.552546
