19
Iteration:  2087
 C         1.461958         0.199497        -0.380328
 C         0.028736        -0.061142        -0.056375
 C        -1.167743        -0.188539         0.151201
 C        -2.627388        -0.086978         0.192566
 O        -2.978617         1.153384        -0.538364
 C        -3.199607        -0.060746         1.674999
 C        -4.682273        -0.248637         1.627158
 C        -5.726251         0.603583         2.424368
 O        -5.475790         1.251332         3.420295
 H         1.534014         0.311263        -1.471680
 H         1.761285         1.151052         0.146230
 H         1.928009        -0.671142         0.065516
 H        -3.298979        -0.812504        -0.320410
 H        -2.304005         1.825165        -0.295205
 H        -2.694730        -0.902280         2.164391
 H        -2.951420         0.915250         2.125051
 H        -5.016211         0.113884         0.642708
 H        -5.043336        -1.348157         1.555957
 H        -6.704378         0.827231         1.859671
