19
Iteration:  1779charge 0 multiplicity 1
 C         1.141323         0.143570         0.786706
 C        -0.299272         0.163568         0.308789
 C        -1.410007        -0.047300        -0.101939
 C        -2.813448        -0.058609        -0.276512
 O        -3.231461         0.828656        -1.348708
 C        -3.378590         0.128670         1.172418
 C        -4.768240         0.727987         1.287043
 C        -5.207812         0.613909         2.834448
 O        -4.520341         0.255522         3.768469
 H         1.805753        -0.484065         0.223594
 H         1.734948         1.165617         0.824403
 H         1.237608        -0.207541         1.811235
 H        -3.135298        -1.123592        -0.544431
 H        -2.979290         1.747989        -1.041163
 H        -3.265616        -0.836199         1.649901
 H        -2.757767         0.927407         1.551983
 H        -4.768786         1.853848         1.338650
 H        -5.659486         0.416735         0.598222
 H        -6.341896         0.860973         2.899329
