19
Iteration:  1274charge 0 multiplicity 1
 C         1.394660        -0.171387         0.250003
 C         0.017553         0.151911        -0.002618
 C        -1.212388         0.140284        -0.176643
 C        -2.716537         0.238103        -0.219338
 O        -3.089634         1.566999        -0.514822
 C        -3.286652        -0.318395         1.140094
 C        -4.802394        -0.133255         1.426604
 C        -4.967272         0.194076         3.016102
 O        -5.681956         1.085666         3.499830
 H         1.468606        -1.196404         0.729514
 H         1.865402        -0.206462        -0.688225
 H         1.872463         0.672484         0.801815
 H        -3.232256        -0.457844        -1.028052
 H        -3.395753         1.410381        -1.428980
 H        -2.948433        -1.335353         1.437213
 H        -2.714156         0.065090         2.038007
 H        -5.057449         0.758870         0.730852
 H        -5.433322        -1.103434         1.045107
 H        -4.226030        -0.469618         3.574696
