19
Iteration:  1037
 C         1.563391        -0.115893        -0.362912
 C         0.136669        -0.203888        -0.282969
 C        -1.105342        -0.167802        -0.129222
 C        -2.520309         0.184235         0.154886
 O        -3.041148         1.344247        -0.482162
 C        -3.011486         0.377518         1.603515
 C        -4.613189         0.542283         1.660687
 C        -5.269270         0.191094         3.021182
 O        -6.407457         0.529823         3.287098
 H         2.010078        -0.553325         0.582173
 H         1.901332        -0.537246        -1.269338
 H         1.886408         0.940379        -0.457310
 H        -3.206684        -0.681851        -0.303370
 H        -2.741646         1.528069        -1.409277
 H        -2.772060        -0.512276         2.202874
 H        -2.391132         1.062917         2.266736
 H        -4.934065         1.600082         1.286299
 H        -5.100201        -0.169532         0.895299
 H        -4.685175        -0.595844         3.524024
