19
Iteration:  1407charge 0 multiplicity 1
 C         1.455203         0.021169         0.047653
 C        -0.086615        -0.108899         0.066273
 C        -1.278012        -0.095383        -0.101661
 C        -2.702196         0.223216        -0.165893
 O        -2.947295         1.463994        -0.708053
 C        -3.233833        -0.033277         1.306853
 C        -4.813033         0.048284         1.494422
 C        -5.137297         0.061940         2.977378
 O        -5.736657         1.011912         3.532504
 H         1.988168        -0.936369         0.173974
 H         1.674815         0.410786        -0.921787
 H         1.880815         0.715185         0.775156
 H        -3.190983        -0.500209        -0.824040
 H        -2.261711         2.102992        -0.423363
 H        -3.022865        -1.074750         1.470278
 H        -2.701863         0.737471         1.908740
 H        -5.209718         0.920553         0.919013
 H        -5.106106        -0.860312         0.886741
 H        -4.588252        -0.759106         3.521965
