19
Iteration:  2525
 C         1.157517         0.745196        -0.096396
 C        -0.141698         0.220643         0.238958
 C        -1.282504        -0.240182         0.210376
 C        -2.756093        -0.421143         0.096076
 O        -3.264904         0.859857        -0.419639
 C        -3.571858        -0.710139         1.385082
 C        -5.025958        -0.013290         1.372424
 C        -5.273281         0.861203         2.560997
 O        -4.365425         1.301291         3.214607
 H         1.202271         1.788613        -0.226740
 H         1.860005         0.733567         0.710732
 H         1.640533         0.352044        -0.951799
 H        -2.959930        -1.289928        -0.594218
 H        -2.510476         1.259912        -0.870677
 H        -3.642880        -1.783940         1.598145
 H        -2.877433        -0.434131         2.189950
 H        -4.680403         0.733737         0.647463
 H        -5.852823        -0.592471         0.950278
 H        -6.356158         1.109543         2.803589
