19
Iteration:   284charge 0 multiplicity 1
 C         1.440383        -0.269903        -0.175573
 C         0.033088         0.148089        -0.186133
 C        -1.155089         0.249193        -0.115325
 C        -2.567379         0.094296         0.011122
 O        -3.107437         1.324490        -0.523436
 C        -3.103291        -0.024514         1.526529
 C        -4.572020         0.148775         1.695953
 C        -5.103255         0.680273         2.926723
 O        -6.206394         0.449837         3.302995
 H         1.954638         0.147450         0.756141
 H         1.516648        -1.389224        -0.196876
 H         1.962861         0.064715        -1.135716
 H        -3.112971        -0.694833        -0.556028
 H        -2.386766         1.758409        -0.961921
 H        -2.736119        -1.053109         1.811851
 H        -2.419063         0.550513         2.091802
 H        -4.803533         0.883967         0.800365
 H        -5.174936        -0.705062         1.419732
 H        -4.494361         1.496217         3.475544
