19
Iteration:  2944charge 0 multiplicity 1
 C         1.329652        -0.088691         0.151161
 C        -0.037913         0.338095        -0.087112
 C        -1.266334         0.317094        -0.125297
 C        -2.695689        -0.058737         0.014099
 O        -3.731134         0.687791        -0.721049
 C        -3.079400        -0.026686         1.501472
 C        -4.484495        -0.405803         1.903229
 C        -5.366521         0.534185         2.643686
 O        -4.995651         1.579941         3.110527
 H         1.342562        -0.057062         1.277433
 H         1.540703        -1.163110        -0.228565
 H         2.053404         0.645048        -0.330996
 H        -2.831798        -1.114174        -0.254417
 H        -3.328226         1.560952        -0.936600
 H        -2.460019        -0.690304         2.115250
 H        -2.702053         0.951225         1.779473
 H        -4.951398        -0.921133         1.149171
 H        -4.394741        -1.204143         2.582114
 H        -6.450869         0.185794         2.755339
