19
Iteration:  4680charge 0 multiplicity 1
 C         1.319035         0.122493         0.507789
 C        -0.032242         0.266935         0.078150
 C        -1.278543         0.257798         0.050035
 C        -2.728934         0.057448         0.176154
 O        -3.460083        -0.028718        -1.035580
 C        -3.510650         1.138978         0.843584
 C        -5.057845         0.672910         1.362431
 C        -5.223107         0.414387         2.816445
 O        -4.406721         0.182953         3.679042
 H         1.390376        -0.937894         0.808444
 H         2.115484         0.133007        -0.227384
 H         1.711354         0.787925         1.308385
 H        -2.972794        -0.860053         0.677208
 H        -2.930823        -0.134086        -1.819511
 H        -3.159804         1.496787         1.781392
 H        -3.733254         2.100580         0.390410
 H        -5.793835         1.434624         1.121667
 H        -5.233643        -0.293529         0.762670
 H        -6.363763         0.350954         3.059139
