19
Iteration:  2654charge 0 multiplicity 1
 C         1.347770         0.033897         0.087473
 C        -0.084501         0.032682         0.106334
 C        -1.226510         0.123344        -0.229077
 C        -2.658033         0.005870        -0.020653
 O        -3.568423         0.792014        -0.927391
 C        -3.104614         0.239218         1.544551
 C        -4.549559        -0.298184         1.702410
 C        -5.404247         0.515543         2.643747
 O        -5.073224         1.293224         3.522297
 H         1.692783         1.015766         0.461648
 H         1.779042        -0.688493         0.876804
 H         1.914185        -0.122029        -0.825929
 H        -2.961877        -1.014364        -0.161681
 H        -3.253741         1.727315        -0.769373
 H        -2.516227        -0.415152         2.104040
 H        -3.118713         1.273333         1.762048
 H        -5.111064        -0.178338         0.750811
 H        -4.508931        -1.374120         1.842453
 H        -6.508011         0.354614         2.589982
