19
Iteration:    19
 C         1.518953        -0.123860        -0.078706
 C         0.016781        -0.096156        -0.101028
 C        -1.163291         0.128092         0.182329
 C        -2.677584         0.137613        -0.023493
 O        -3.052757         1.330364        -0.799295
 C        -3.237461         0.122018         1.347731
 C        -4.747016         0.337408         1.432678
 C        -5.109175         0.695829         2.898906
 O        -5.962301         0.230720         3.624392
 H         1.879402         0.188809         0.879474
 H         1.928785        -1.178619        -0.282466
 H         1.905334         0.569270        -0.811162
 H        -2.965978        -0.764353        -0.546971
 H        -2.238025         1.579174        -1.230324
 H        -3.129172        -0.873374         1.832583
 H        -2.643771         0.697762         2.177994
 H        -5.077929         1.171419         0.802716
 H        -5.252515        -0.566826         1.133041
 H        -4.418638         1.538513         3.123648
