19
Iteration:    33
 C         1.445404        -0.089586        -0.092477
 C         0.044155        -0.051226        -0.025197
 C        -1.127314         0.091042         0.098424
 C        -2.520370         0.189564        -0.064313
 O        -2.996858         1.331772        -0.741851
 C        -3.359586        -0.045322         1.375680
 C        -4.872478         0.289065         1.464905
 C        -5.090611         0.718537         2.872151
 O        -5.923166         0.293953         3.632553
 H         1.848975         0.208316         0.859778
 H         1.807402        -1.113557        -0.285827
 H         1.872472         0.542340        -0.855703
 H        -2.729459        -0.620059        -0.676252
 H        -2.598806         1.390411        -1.655023
 H        -2.949192        -0.975113         1.692375
 H        -2.922478         0.860025         1.885979
 H        -4.932233         1.187337         0.895543
 H        -5.626516        -0.385076         1.135870
 H        -4.313991         1.419212         3.388881
