19
Iteration:  2423charge 0 multiplicity 1
 C         1.131895         0.509039         0.351108
 C        -0.265151         0.351421         0.240976
 C        -1.445325         0.016564         0.106051
 C        -2.857694        -0.248841        -0.135866
 O        -3.685001         0.871140        -0.421925
 C        -3.431542        -0.760196         1.278615
 C        -4.887124        -0.338103         1.551010
 C        -4.928642         0.987932         2.299039
 O        -4.116803         1.318948         3.154503
 H         1.372469         1.474133        -0.015961
 H         1.478214         0.393554         1.402363
 H         1.858181        -0.164228         0.002487
 H        -3.017619        -1.130522        -0.808469
 H        -3.101189         1.635212        -0.292940
 H        -3.291800        -1.867221         1.321249
 H        -2.807409        -0.335810         2.132837
 H        -5.298092        -0.026871         0.539630
 H        -5.421680        -1.082952         2.105992
 H        -5.732357         1.622276         1.772467
