19
Iteration:    32
 C         1.448083        -0.087087        -0.092064
 C         0.037263        -0.056507        -0.031082
 C        -1.132170         0.093411         0.106615
 C        -2.519126         0.192425        -0.063742
 O        -3.001229         1.328964        -0.747037
 C        -3.355830        -0.038774         1.383064
 C        -4.864484         0.290806         1.466326
 C        -5.089656         0.717450         2.865948
 O        -5.923671         0.290906         3.633821
 H         1.831658         0.198815         0.849876
 H         1.830219        -1.141010        -0.291511
 H         1.887478         0.528376        -0.843392
 H        -2.738899        -0.620035        -0.671637
 H        -2.563919         1.410614        -1.639634
 H        -2.963108        -0.991883         1.669753
 H        -2.908350         0.913165         1.881295
 H        -4.933397         1.186983         0.889149
 H        -5.598673        -0.381584         1.137914
 H        -4.367593         1.388334         3.395775
