19
Iteration:  4370charge 0 multiplicity 1
 C         1.167114         0.326813        -0.364941
 C        -0.209970         0.300880        -0.005123
 C        -1.287415         0.017111         0.421733
 C        -2.621644         0.157222         0.903085
 O        -3.452659        -0.497457        -0.088494
 C        -3.150825         1.564532         1.259334
 C        -4.728367         1.545465         1.474817
 C        -5.344894         0.284557         2.099396
 O        -4.748204        -0.509426         2.797181
 H         1.626620         0.336764         0.630483
 H         1.505347        -0.665274        -0.785455
 H         1.410258         1.147696        -1.019123
 H        -2.884034        -0.397704         1.840916
 H        -2.908439        -1.227598        -0.497614
 H        -2.780801         1.892409         2.245272
 H        -2.879597         2.389046         0.586450
 H        -5.055295         2.349605         2.081681
 H        -5.278662         1.631233         0.496632
 H        -6.430657        -0.028378         1.799386
