19
Iteration:   680
 C         1.220606        -0.595677         0.402401
 C        -0.125793        -0.185419        -0.046038
 C        -1.237733         0.236316        -0.217221
 C        -2.619372         0.400353        -0.245553
 O        -3.142323         1.596219        -0.819208
 C        -3.211555         0.368155         1.248670
 C        -4.765662         0.393138         1.447365
 C        -4.968788         0.645519         2.902453
 O        -5.553235        -0.144599         3.625241
 H         1.325833        -0.255180         1.440932
 H         1.484941        -1.637959         0.322796
 H         1.951201        -0.086330        -0.195189
 H        -3.220484        -0.462816        -0.665005
 H        -3.040013         2.303125        -0.180099
 H        -2.520209        -0.307765         1.923271
 H        -2.733595         1.291462         1.542395
 H        -4.756303         1.393865         0.893804
 H        -5.182107        -0.504608         0.958994
 H        -4.705248         1.633386         3.321328
