19
Iteration:  2665charge 0 multiplicity 1
 C         1.422324        -0.043431         0.128184
 C        -0.054584         0.036625         0.038559
 C        -1.239583         0.263315        -0.215736
 C        -2.708185         0.026509         0.014508
 O        -3.576558         0.743979        -0.890698
 C        -3.078447         0.283425         1.518328
 C        -4.548148        -0.227705         1.684301
 C        -5.481172         0.431089         2.692309
 O        -5.079518         1.286854         3.477848
 H         1.844327         0.916920         0.476468
 H         1.711484        -0.937587         0.788574
 H         1.679144        -0.318436        -0.893848
 H        -2.845734        -0.988229        -0.322255
 H        -3.257044         1.660271        -1.049238
 H        -2.442708        -0.025029         2.289861
 H        -2.859136         1.305699         1.683339
 H        -5.035045        -0.174292         0.701000
 H        -4.638393        -1.268908         2.001526
 H        -6.423912        -0.127930         2.772625
