19
Iteration:  2952
 C         1.371933        -0.064845         0.137380
 C        -0.088128         0.351674        -0.061412
 C        -1.307250         0.326490        -0.130527
 C        -2.754087        -0.075301        -0.014219
 O        -3.717339         0.637514        -0.651187
 C        -3.043088        -0.052876         1.473797
 C        -4.464288        -0.402985         1.874345
 C        -5.311501         0.562511         2.577659
 O        -5.016275         1.609171         3.144603
 H         1.539735        -0.127985         1.211568
 H         1.546476        -1.131009        -0.234840
 H         2.274678         0.515484        -0.136274
 H        -2.750637        -1.088569        -0.440446
 H        -3.467438         1.584638        -0.620705
 H        -2.398371        -0.835506         1.926048
 H        -2.832865         0.938643         1.963378
 H        -5.178917        -0.835008         1.057734
 H        -4.439397        -1.130168         2.708333
 H        -6.418437         0.217086         2.542021
