19
Iteration:  1531
 C         1.501492        -0.304283        -0.357861
 C         0.123867         0.003688         0.027527
 C        -1.066392         0.364737         0.191144
 C        -2.494002         0.228601         0.246059
 O        -3.164018         1.042753        -0.823904
 C        -3.146763         0.474488         1.591601
 C        -4.685268         0.365058         1.425085
 C        -5.631605         0.019823         2.647641
 O        -5.745915         0.650167         3.662528
 H         1.597441        -1.319443        -0.670857
 H         1.816171         0.246794        -1.283576
 H         2.245852        -0.036179         0.368671
 H        -2.774315        -0.752779        -0.020265
 H        -2.336755         1.494400        -1.132366
 H        -2.829449        -0.217141         2.292713
 H        -2.913820         1.364308         2.116096
 H        -5.187850         1.221695         0.976192
 H        -4.897757        -0.487495         0.676364
 H        -6.402160        -0.663191         2.196961
