19
Iteration:  2783
 C         1.423073        -0.110556        -0.328604
 C         0.032767        -0.070717         0.130771
 C        -1.202219        -0.052887         0.152695
 C        -2.659063         0.077482         0.115723
 O        -3.010219         0.662782        -1.146956
 C        -3.459557         0.829474         1.262500
 C        -4.616674        -0.077057         1.797472
 C        -5.232782         0.170644         3.120729
 O        -5.606342         1.271457         3.520044
 H         1.944520         0.581785         0.354375
 H         1.847215        -1.111773        -0.141802
 H         1.533211         0.203665        -1.358201
 H        -3.168306        -0.877423         0.124411
 H        -2.896180         1.602669        -1.279493
 H        -2.793904         1.215822         2.050361
 H        -3.898914         1.777296         0.937668
 H        -5.445163         0.092412         1.069206
 H        -4.301202        -1.130056         1.698699
 H        -5.397826        -0.737597         3.733530
