19
Iteration:   842
 C         1.320012        -0.255591        -0.166059
 C        -0.051882        -0.198582        -0.025415
 C        -1.247535        -0.262254        -0.052772
 C        -2.611368         0.302331         0.056683
 O        -2.847437         1.639139        -0.488935
 C        -3.145954         0.298251         1.449159
 C        -4.767705         0.341738         1.444488
 C        -5.269520         0.807071         2.763972
 O        -5.814005        -0.011094         3.499650
 H         1.837069        -0.176362         0.859440
 H         1.676086        -1.120832        -0.746471
 H         1.592232         0.645304        -0.785420
 H        -3.314552        -0.512306        -0.445682
 H        -2.410119         1.925443        -1.304072
 H        -2.876270        -0.625494         2.050743
 H        -2.623202         1.041064         2.121515
 H        -5.039655         0.928646         0.596932
 H        -4.845477        -0.754823         1.192944
 H        -5.151276         1.949889         2.836737
