19
Iteration:  4296
 C         1.104453         0.401942        -0.549834
 C        -0.164014         0.122194         0.097384
 C        -1.249243         0.044233         0.594831
 C        -2.578976         0.191745         0.956529
 O        -3.350212        -0.460553        -0.161535
 C        -3.065307         1.623036         1.288500
 C        -4.700397         1.446206         1.431731
 C        -5.353637         0.153852         1.956245
 O        -4.971687        -0.410533         2.937919
 H         1.880059         0.786046         0.134740
 H         1.573035        -0.517776        -1.052635
 H         0.807328         1.165270        -1.251500
 H        -2.826149        -0.371870         1.925719
 H        -3.252348        -1.423376        -0.253819
 H        -2.666836         1.979340         2.255367
 H        -2.807371         2.371899         0.487958
 H        -4.938285         2.250087         2.244928
 H        -5.194480         1.767702         0.519245
 H        -6.341321        -0.192528         1.447962
