19
Iteration:   927
 C         1.490249        -0.331374        -0.431972
 C         0.146186        -0.153107        -0.035443
 C        -1.012487         0.196794         0.070566
 C        -2.588984         0.204009         0.126192
 O        -3.100175         1.379914        -0.632013
 C        -3.158059         0.183443         1.611246
 C        -4.610237         0.521151         1.560817
 C        -5.198270         0.538903         2.957077
 O        -6.299348         0.210654         3.347935
 H         2.177307        -0.668427         0.402785
 H         1.560725        -1.125111        -1.114475
 H         1.957952         0.590369        -0.837996
 H        -3.005747        -0.539624        -0.476983
 H        -2.368419         1.709742        -1.151507
 H        -2.919834        -0.811002         1.956686
 H        -2.503245         1.007890         1.925075
 H        -4.664083         1.555954         1.116262
 H        -5.177998        -0.222623         0.836427
 H        -4.533508         0.886645         3.771200
