19
Iteration:   705charge 0 multiplicity 1
 C         1.308306        -0.595121         0.342322
 C        -0.120813        -0.175709         0.057999
 C        -1.300660         0.213097        -0.122940
 C        -2.679978         0.459837        -0.092883
 O        -3.272767         1.634489        -0.818976
 C        -3.196186         0.242936         1.281465
 C        -4.679898         0.412022         1.363502
 C        -5.021447         0.723005         2.802028
 O        -5.465607        -0.103159         3.560319
 H         1.587743        -0.454838         1.347230
 H         1.471870        -1.709385         0.073210
 H         2.012972        -0.109822        -0.322068
 H        -3.233517        -0.445948        -0.600613
 H        -2.927014         2.426659        -0.341612
 H        -2.778874        -0.747615         1.510554
 H        -2.482277         0.792972         1.956139
 H        -4.962683         1.056870         0.537223
 H        -4.906958        -0.578587         1.257592
 H        -4.707583         1.660914         3.311148
