19
Iteration:  2697
 C         1.337801        -0.267537         0.085248
 C         0.018645         0.242157        -0.192358
 C        -1.164852         0.343019        -0.005117
 C        -2.610958         0.112593         0.154620
 O        -3.515498         0.647277        -0.933742
 C        -3.223248         0.488677         1.514299
 C        -4.574253        -0.246262         1.594513
 C        -5.314987         0.250971         2.859583
 O        -5.236402         1.318165         3.430254
 H         2.209941         0.298163         0.563535
 H         1.229301        -1.245632         0.738265
 H         1.795137        -0.481663        -0.898130
 H        -2.778528        -0.897168        -0.194371
 H        -3.157651         1.428434        -1.422277
 H        -2.576222         0.263499         2.320801
 H        -3.465075         1.574292         1.428149
 H        -5.127517         0.103475         0.777433
 H        -4.667902        -1.258360         1.604531
 H        -6.065648        -0.537153         3.177465
