19
Iteration:  1228charge 0 multiplicity 1
 C         1.463746        -0.146326         0.088323
 C        -0.016654        -0.062147        -0.040023
 C        -1.224001         0.100229        -0.040705
 C        -2.670835         0.283882        -0.140482
 O        -3.178276         1.504128        -0.511149
 C        -3.212085         0.000135         1.274533
 C        -4.758425        -0.095931         1.423261
 C        -5.095317         0.067522         2.940817
 O        -5.704265         1.010127         3.417961
 H         1.666336        -1.020153         0.689392
 H         1.995829        -0.298124        -0.865980
 H         1.847374         0.752997         0.572580
 H        -2.875128        -0.665551        -0.699682
 H        -2.889102         1.814476        -1.363494
 H        -2.701097        -0.899508         1.699563
 H        -2.787357         0.742181         1.996008
 H        -5.129524         0.882888         1.180160
 H        -5.432671        -0.884816         0.843331
 H        -4.442955        -0.638115         3.549059
