19
Iteration:  4817
 C         1.169452         0.339113         0.411051
 C        -0.280552         0.058120         0.306830
 C        -1.492848         0.088764         0.353262
 C        -2.969935         0.030140         0.176768
 O        -3.136185        -0.251856        -1.268177
 C        -3.600209         1.196186         0.916283
 C        -5.033066         1.015725         1.423572
 C        -4.961661         0.165897         2.645135
 O        -4.280893         0.323736         3.633305
 H         1.709630        -0.394505        -0.204936
 H         1.401095         1.267063        -0.094101
 H         1.386770         0.446282         1.427369
 H        -3.453025        -0.772844         0.704073
 H        -2.179606        -0.074103        -1.536717
 H        -2.941622         1.349570         1.824557
 H        -3.457857         2.013505         0.196323
 H        -5.320869         2.047697         1.831924
 H        -5.796115         0.621682         0.785874
 H        -5.634450        -0.677839         2.599810
