19
Iteration:   878
 C         1.510184        -0.331196        -0.265197
 C         0.017153        -0.049112        -0.244152
 C        -1.193886         0.000928         0.016066
 C        -2.592596         0.080508         0.055700
 O        -2.871260         1.530605        -0.539931
 C        -3.134983         0.257018         1.577015
 C        -4.725255         0.441387         1.485650
 C        -5.330109         0.729447         2.860174
 O        -6.107913         0.047867         3.522100
 H         1.935067        -0.432327         0.706657
 H         1.820801        -1.275471        -0.845986
 H         2.064930         0.489335        -0.703372
 H        -3.184202        -0.525475        -0.660838
 H        -2.141025         1.715759        -1.179086
 H        -2.838482        -0.697239         2.108131
 H        -2.512121         1.075952         1.856862
 H        -4.840200         1.370678         0.818382
 H        -5.231150        -0.437087         1.135731
 H        -5.051603         1.659169         3.412191
