19
Iteration:   594
 C         1.292481        -0.403534         0.195520
 C        -0.146072        -0.272901         0.124462
 C        -1.287115        -0.055109        -0.181098
 C        -2.740868         0.393513        -0.179986
 O        -2.938671         1.625229        -0.910771
 C        -3.176299         0.663881         1.317681
 C        -4.750599         0.529420         1.492356
 C        -4.940900         0.487565         3.052236
 O        -5.759056        -0.231971         3.595489
 H         1.685778        -0.051544         1.157362
 H         1.508385        -1.535229         0.193626
 H         1.849038         0.025402        -0.633307
 H        -3.202221        -0.493276        -0.796936
 H        -2.342924         1.614889        -1.669670
 H        -2.607139        -0.174384         1.860282
 H        -3.008631         1.688480         1.759058
 H        -5.346584         1.316496         1.014845
 H        -5.127073        -0.300619         0.937720
 H        -4.280716         1.244714         3.544446
