19
Iteration:  1899
 C         1.344524        -0.100490         0.588133
 C        -0.146742        -0.082505         0.200492
 C        -1.339361         0.024949        -0.143844
 C        -2.797681         0.140338        -0.171917
 O        -3.141340         0.985696        -1.399157
 C        -3.388159         0.702390         1.230006
 C        -4.782818         0.154785         1.449952
 C        -5.460787         0.481587         2.856551
 O        -4.787541         0.480774         3.884753
 H         1.916464        -0.429356        -0.237111
 H         1.692608         0.970199         0.823993
 H         1.636386        -0.609926         1.484228
 H        -3.300877        -0.869659        -0.286803
 H        -2.437937         1.623758        -1.506142
 H        -2.855932         0.124072         1.953344
 H        -3.300034         1.801135         1.283213
 H        -5.357392         0.414235         0.579234
 H        -4.728549        -0.933342         1.377384
 H        -6.550136         0.341240         2.814194
