19
Iteration:   368charge 0 multiplicity 1
 C         1.409438        -0.119164        -0.467846
 C        -0.014150        -0.199929        -0.133707
 C        -1.161717        -0.047846         0.204426
 C        -2.615232         0.140134         0.192087
 O        -2.721288         1.355560        -0.620606
 C        -3.071743         0.441872         1.499687
 C        -4.676784         0.469497         1.560961
 C        -5.210902         0.593083         2.995237
 O        -6.298918         0.113571         3.362853
 H         1.947396         0.437448         0.229597
 H         1.913802        -1.147044        -0.516325
 H         1.549049         0.357418        -1.408790
 H        -3.168306        -0.654663        -0.440506
 H        -2.799916         1.156715        -1.586808
 H        -2.859651        -0.484375         2.191755
 H        -2.594419         1.342046         1.992777
 H        -5.010254         1.216106         0.835815
 H        -4.956806        -0.582057         1.311189
 H        -4.639280         1.265766         3.491938
