19
Iteration:   765
 C         1.368976        -0.494077         0.103136
 C         0.004513        -0.018692        -0.017333
 C        -1.227994         0.050238        -0.015996
 C        -2.663248         0.325202        -0.113679
 O        -2.936641         1.697208        -0.648826
 C        -3.356680         0.143986         1.229243
 C        -4.895134         0.335407         1.439767
 C        -5.223854         0.739354         2.785821
 O        -5.507226        -0.025268         3.701927
 H         1.725624        -0.519992         1.200871
 H         1.344105        -1.509076        -0.230798
 H         2.123114         0.097138        -0.480961
 H        -3.027023        -0.390870        -0.844170
 H        -2.337581         2.000566        -1.376917
 H        -3.139173        -0.841187         1.699698
 H        -2.919790         0.934348         1.848692
 H        -5.116101         1.065349         0.647397
 H        -5.490569        -0.607077         1.149177
 H        -5.156214         1.797190         2.795091
