19
Iteration:  4437charge 0 multiplicity 1
 C         1.451887         0.250561        -0.328884
 C         0.017833         0.425884         0.152966
 C        -1.247419         0.306562         0.120644
 C        -2.639035         0.037587         0.718758
 O        -3.489067        -0.444917        -0.401945
 C        -3.253938         1.376827         1.329702
 C        -4.795125         1.337903         1.421203
 C        -5.438226         0.486031         2.469782
 O        -4.979087        -0.509850         3.037043
 H         2.164036         0.124342         0.500468
 H         1.710211        -0.719155        -0.889347
 H         1.792685         1.087239        -0.891227
 H        -2.524889        -0.647942         1.599910
 H        -3.249564        -1.380355        -0.558841
 H        -2.721488         1.340950         2.293192
 H        -2.902593         2.292110         0.801563
 H        -5.168177         2.351993         1.486372
 H        -5.344427         0.978041         0.521759
 H        -6.429145         0.878088         2.540501
