19
Iteration:   496
 C         1.457811        -0.517632        -0.260201
 C         0.081306        -0.044306         0.027099
 C        -1.148790         0.164081         0.020753
 C        -2.606838         0.237235         0.129436
 O        -3.189740         1.279892        -0.730059
 C        -3.046506         0.539795         1.512359
 C        -4.591597         0.765321         1.560332
 C        -5.323863         0.691095         2.970183
 O        -5.939237        -0.293119         3.317995
 H         2.186431        -0.299871         0.572970
 H         1.395400        -1.684381        -0.276069
 H         1.884529        -0.270514        -1.251341
 H        -3.123319        -0.599794        -0.296805
 H        -2.530167         1.885038        -1.061367
 H        -2.645677        -0.178113         2.303453
 H        -2.669667         1.582482         1.931762
 H        -4.883663         1.709081         1.013426
 H        -5.170783         0.072241         0.816383
 H        -5.272625         1.699350         3.497428
