19
Iteration:  1073charge 0 multiplicity 1
 C         1.389320        -0.163873        -0.423747
 C        -0.001614         0.091987        -0.007975
 C        -1.188841        -0.017783         0.162108
 C        -2.646864         0.097511         0.056206
 O        -2.849461         1.342584        -0.625158
 C        -3.095786         0.243734         1.565368
 C        -4.600873         0.527110         1.640940
 C        -5.157378         0.119867         2.959158
 O        -6.208051         0.587185         3.305188
 H         1.932369        -0.813292         0.209220
 H         1.336480        -0.736034        -1.397774
 H         1.952559         0.740541        -0.539375
 H        -3.160858        -0.871250        -0.454036
 H        -2.275782         1.180825        -1.435186
 H        -2.934279        -0.767784         1.952247
 H        -2.528323         1.052915         1.975744
 H        -4.841258         1.483317         1.254544
 H        -5.095708        -0.317611         0.928903
 H        -4.876807        -0.838811         3.387893
