19
Iteration:  1204
 C         1.449546        -0.148167         0.003759
 C        -0.025196        -0.056403         0.099089
 C        -1.253066         0.042139        -0.201719
 C        -2.753950         0.211999        -0.077061
 O        -3.173965         1.476902        -0.551087
 C        -3.135789         0.102636         1.490344
 C        -4.604138         0.081891         1.441544
 C        -5.136649         0.048712         2.862112
 O        -5.765466         0.923289         3.387623
 H         1.855851        -0.969679         0.518172
 H         1.680776        -0.302891        -1.110199
 H         1.916318         0.774841         0.282636
 H        -3.088269        -0.661694        -0.535759
 H        -2.453862         2.033959        -0.923030
 H        -2.675626        -0.733747         2.127062
 H        -2.586683         0.984634         1.902821
 H        -5.074473         0.858473         0.879780
 H        -4.950731        -0.983300         1.037476
 H        -5.115941        -1.017689         3.198822
