19
Iteration:  1656
 C         1.415653         0.116703         0.077093
 C        -0.063793         0.118000         0.238271
 C        -1.250523        -0.108891         0.130044
 C        -2.745672        -0.012800        -0.079217
 O        -2.976023         1.114775        -0.880064
 C        -3.407758         0.277639         1.272037
 C        -4.914343         0.287143         1.358832
 C        -5.464099         0.618523         2.660263
 O        -5.072511         0.357829         3.800270
 H         1.866824        -0.833783        -0.398428
 H         1.870854         0.916128        -0.522567
 H         1.960154         0.040515         1.074212
 H        -3.158133        -0.834987        -0.661106
 H        -2.515813         1.026972        -1.756763
 H        -2.926722        -0.542329         1.917842
 H        -2.998436         1.290724         1.557604
 H        -5.288908         0.960788         0.526154
 H        -5.472180        -0.743407         1.292797
 H        -6.397803         1.349144         2.552111
