19
Iteration:  1928
 C         1.316141        -0.212981         0.422580
 C        -0.080975        -0.044096         0.048846
 C        -1.260075         0.222192         0.049540
 C        -2.604707         0.201247        -0.158392
 O        -3.179967         0.929112        -1.251310
 C        -3.392923         0.603271         1.135779
 C        -4.750142         0.071328         1.433031
 C        -5.500844         0.345945         2.872943
 O        -4.979480         0.668023         3.935802
 H         1.951632        -0.598471        -0.427908
 H         1.778293         0.665001         0.810444
 H         1.542884        -0.852195         1.330335
 H        -2.912964        -0.830041        -0.289645
 H        -2.726347         1.777100        -1.424932
 H        -2.611220         0.353573         1.928345
 H        -3.370310         1.731326         1.100173
 H        -5.289369         0.715736         0.686864
 H        -4.960675        -0.952688         1.022916
 H        -6.572494        -0.052547         2.835141
