19
Iteration:  4434
 C         1.438376         0.235156        -0.319191
 C         0.031394         0.398197         0.142164
 C        -1.227188         0.327735         0.105518
 C        -2.640101         0.037237         0.725826
 O        -3.500680        -0.431389        -0.355970
 C        -3.229407         1.375852         1.319253
 C        -4.823960         1.346436         1.416893
 C        -5.421784         0.469258         2.461069
 O        -4.984378        -0.515613         3.028013
 H         2.187940         0.229219         0.484534
 H         1.685996        -0.654494        -0.897025
 H         1.742789         1.158721        -0.853687
 H        -2.457091        -0.610255         1.552744
 H        -3.313750        -1.337838        -0.586466
 H        -2.766330         1.368425         2.317813
 H        -2.889926         2.205271         0.726446
 H        -5.138707         2.374472         1.459059
 H        -5.367529         0.973123         0.454611
 H        -6.462029         0.850580         2.548808
