19
Iteration:  1915charge 0 multiplicity 1
 C         1.309894        -0.138285         0.489490
 C        -0.063683        -0.118146         0.126195
 C        -1.240918         0.192545        -0.007388
 C        -2.760045         0.174643        -0.199653
 O        -3.157837         0.944416        -1.324225
 C        -3.334553         0.623863         1.152709
 C        -4.816682         0.194292         1.490489
 C        -5.405444         0.329460         2.834554
 O        -4.936853         0.589727         3.909219
 H         2.004103        -0.540064        -0.317310
 H         1.584228         0.876017         0.686484
 H         1.295588        -0.900018         1.314191
 H        -2.962381        -0.837632        -0.527701
 H        -2.495635         1.653188        -1.386084
 H        -2.729377         0.311029         2.068529
 H        -3.383362         1.764234         1.191864
 H        -5.696081         0.407670         0.806868
 H        -4.827388        -0.966375         1.599432
 H        -6.536465         0.337051         2.736895
