19
Iteration:  1992
 C         1.415023        -0.284290        -0.029560
 C         0.024701         0.034659         0.175458
 C        -1.165683         0.323026         0.220089
 C        -2.687185         0.122675         0.136080
 O        -3.302613         0.908702        -0.895519
 C        -3.327241         0.465844         1.432287
 C        -4.672452         0.040861         1.425086
 C        -5.451004         0.222904         2.614440
 O        -5.184329         0.970970         3.512346
 H         1.565965        -0.485783        -1.145401
 H         2.046623         0.516832         0.288234
 H         1.635837        -1.211689         0.601917
 H        -2.692570        -0.853298        -0.311113
 H        -2.907356         1.817927        -0.875116
 H        -2.810712        -0.046119         2.296576
 H        -3.255405         1.569918         1.456017
 H        -5.336662         0.749893         0.803907
 H        -4.803637        -0.933849         0.868853
 H        -6.296034        -0.539033         2.641535
