19
Iteration:  4743
 C         1.215579         0.245095         0.259547
 C        -0.228247         0.182595         0.548683
 C        -1.419161        -0.016628         0.440217
 C        -2.851127        -0.030872         0.193296
 O        -3.203166         0.101308        -1.298556
 C        -3.614790         1.185049         0.900905
 C        -5.029268         0.740260         1.314831
 C        -5.103777         0.264616         2.768399
 O        -4.241865         0.333968         3.615257
 H         1.439194        -0.820199         0.076805
 H         1.390516         0.717682        -0.790828
 H         1.861161         0.668827         1.013780
 H        -3.238091        -0.977457         0.689763
 H        -2.919878        -0.713630        -1.704295
 H        -2.949315         1.542622         1.622087
 H        -3.691374         1.872871         0.050586
 H        -5.690570         1.640972         1.315767
 H        -5.548362         0.051753         0.645121
 H        -6.140378        -0.066472         3.084573
