19
Iteration:  3259charge 0 multiplicity 1
 C         1.369705         0.006864        -0.093164
 C        -0.132914         0.437250        -0.279721
 C        -1.310748         0.097107        -0.045344
 C        -2.710261        -0.045622         0.233706
 O        -3.514337         1.112659        -0.184221
 C        -3.017510        -0.397824         1.698905
 C        -4.601888        -0.623656         1.894246
 C        -5.482910         0.630037         2.250973
 O        -4.986959         1.555209         2.862131
 H         1.285899        -1.051513         0.134022
 H         1.956132         0.153122        -1.046313
 H         1.883368         0.458337         0.757399
 H        -2.984947        -0.898308        -0.321802
 H        -2.830935         1.795191        -0.222166
 H        -2.454788        -1.308285         2.035660
 H        -2.790972         0.423484         2.403171
 H        -5.000320        -0.871872         0.927749
 H        -4.828208        -1.387551         2.548091
 H        -6.590999         0.550191         2.184941
