19
Iteration:   345charge 0 multiplicity 1
 C         1.481234        -0.100214        -0.383280
 C         0.056739        -0.288241        -0.168121
 C        -1.116645        -0.058940         0.027727
 C        -2.558216         0.187780         0.165427
 O        -2.904447         1.411765        -0.544745
 C        -3.109660         0.325863         1.556577
 C        -4.722880         0.319946         1.587564
 C        -5.199502         0.619456         2.952246
 O        -6.263576         0.238933         3.331745
 H         1.919852         0.508788         0.338350
 H         2.118001        -1.039153        -0.457897
 H         1.592727         0.410919        -1.299018
 H        -2.975897        -0.703063        -0.484429
 H        -2.894154         1.241780        -1.480561
 H        -2.706413        -0.353806         2.396890
 H        -2.906310         1.371027         1.991065
 H        -4.804359         1.248169         1.001524
 H        -5.290944        -0.603818         1.228986
 H        -4.376013         1.185601         3.498370
