19
Iteration:   651
 C         1.251251        -0.565282         0.414893
 C        -0.099154        -0.103601        -0.027682
 C        -1.269483         0.063652        -0.292267
 C        -2.680174         0.459689        -0.276799
 O        -3.049970         1.630160        -0.981628
 C        -3.187704         0.508816         1.271994
 C        -4.750541         0.434491         1.546065
 C        -5.003064         0.544973         2.996978
 O        -5.657831        -0.181373         3.703070
 H         1.477731        -0.279943         1.438756
 H         1.365545        -1.742062         0.417679
 H         2.094077        -0.106130        -0.144713
 H        -3.314477        -0.388541        -0.835546
 H        -2.190267         2.131073        -0.905822
 H        -2.786603        -0.469210         1.505142
 H        -2.468380         1.195388         1.927196
 H        -5.311394         1.149594         0.965548
 H        -4.963027        -0.496767         1.064174
 H        -4.740552         1.461256         3.592176
