19
Iteration:  3739
 C         1.256630         0.408794         0.496015
 C        -0.098210        -0.065819         0.140350
 C        -1.268485        -0.022687        -0.053602
 C        -2.714779        -0.109477         0.101366
 O        -3.477902        -0.150653        -1.143087
 C        -3.375521         0.999499         1.054820
 C        -4.931766         0.789319         1.312656
 C        -5.327792         0.570213         2.857919
 O        -4.459337         0.525221         3.710411
 H         1.521282         1.020925        -0.383560
 H         0.960931         1.112790         1.394179
 H         1.965091        -0.367416         0.801856
 H        -3.062082        -1.036694         0.657358
 H        -2.840861        -0.266806        -1.870702
 H        -2.812876         0.831772         2.008057
 H        -3.221618         2.081577         0.701188
 H        -5.485948         1.658269         0.876648
 H        -5.281226        -0.099524         0.930558
 H        -6.219301        -0.051052         3.062449
