19
Iteration:  1095charge 0 multiplicity 1
 C         1.402016        -0.155585        -0.441073
 C         0.118927         0.023335         0.042481
 C        -1.111353        -0.026076         0.236817
 C        -2.531021         0.215232         0.073622
 O        -2.948475         1.328520        -0.743553
 C        -3.194312         0.196398         1.501857
 C        -4.719721         0.435971         1.556095
 C        -5.237132         0.097039         2.911902
 O        -6.157156         0.637319         3.467890
 H         1.931259        -0.832461         0.174234
 H         1.363680        -0.693659        -1.429501
 H         1.981648         0.744784        -0.486604
 H        -2.943732        -0.715171        -0.490656
 H        -2.148711         1.563929        -1.198978
 H        -3.113160        -0.845096         1.802919
 H        -2.687713         0.899471         2.133483
 H        -4.727642         1.428588         1.387558
 H        -5.140103        -0.091948         0.635557
 H        -4.594131        -0.580744         3.489247
