19
Iteration:  4535
 C         1.164551         0.511205        -0.204535
 C        -0.091131        -0.046654         0.436643
 C        -1.291029        -0.122680         0.459283
 C        -2.787749        -0.010010         0.462146
 O        -3.318906        -0.120420        -0.903781
 C        -3.300397         1.248563         1.226797
 C        -4.797739         1.082348         1.301705
 C        -5.309674         0.410319         2.497677
 O        -4.687709        -0.081304         3.454722
 H         2.068275         0.501749         0.416967
 H         1.495613         0.179127        -1.255758
 H         0.833189         1.511355        -0.377851
 H        -3.045771        -0.873493         1.044314
 H        -2.691474         0.144778        -1.637494
 H        -2.941915         1.240267         2.274638
 H        -2.804018         2.119978         0.780598
 H        -5.272579         2.048801         1.210732
 H        -5.185583         0.571950         0.285401
 H        -6.388253         0.590277         2.476899
