19
Iteration:  3010
 C         1.307751         0.307416         0.000097
 C        -0.125777         0.127851        -0.035199
 C        -1.347701         0.064569         0.003707
 C        -2.768723        -0.178870         0.137607
 O        -3.696359         0.832467        -0.507089
 C        -3.096340        -0.344926         1.645366
 C        -4.565401        -0.546058         1.858228
 C        -5.273430         0.794766         2.239552
 O        -4.800720         1.600625         3.038418
 H         1.582377         0.092328         1.092240
 H         1.987145        -0.333028        -0.674259
 H         1.516976         1.412900        -0.170580
 H        -3.008636        -1.006274        -0.513702
 H        -3.351643         1.714342        -0.283373
 H        -2.443911        -1.134831         2.073874
 H        -2.876677         0.568936         2.215828
 H        -5.116441        -1.101654         1.141787
 H        -4.648633        -1.056890         2.790814
 H        -6.264724         0.996693         1.793718
