19
Iteration:  2619charge 0 multiplicity 1
 C         1.286559         0.319877         0.088734
 C        -0.110532         0.089927        -0.032473
 C        -1.305385        -0.171514        -0.018115
 C        -2.739210        -0.250187        -0.070862
 O        -3.340817         0.931075        -0.878131
 C        -3.213259        -0.024676         1.445188
 C        -4.683200        -0.237200         1.700976
 C        -5.441502         0.734837         2.586416
 O        -4.875701         1.238162         3.532721
 H         1.368643         1.404316         0.465702
 H         1.634419        -0.246275         1.029510
 H         1.971704         0.153483        -0.780352
 H        -3.112990        -1.143170        -0.559896
 H        -2.978436         1.688456        -0.336445
 H        -2.511219        -0.555365         2.047879
 H        -2.931634         0.869033         1.930939
 H        -5.174769        -0.491086         0.804884
 H        -4.822959        -1.015691         2.415167
 H        -6.505749         0.861121         2.273768
