19
Iteration:   161charge 0 multiplicity 1
 C         1.360138         0.074600         0.142814
 C        -0.065960        -0.024843        -0.110599
 C        -1.261076        -0.056817        -0.323881
 C        -2.724868         0.085365        -0.179485
 O        -2.969554         1.459841        -0.435840
 C        -3.136004        -0.178285         1.249553
 C        -4.605144        -0.030204         1.532696
 C        -4.993621         0.725692         2.885571
 O        -6.034026         0.652048         3.541916
 H         1.426943         0.509131         1.141537
 H         1.803054        -1.047066         0.155455
 H         1.901098         0.671361        -0.609844
 H        -3.313284        -0.549784        -0.971363
 H        -2.126018         1.639026        -0.857809
 H        -2.828233        -1.236101         1.616239
 H        -2.457238         0.229647         1.986333
 H        -5.303812         0.360565         0.655190
 H        -4.937069        -1.058914         1.665497
 H        -4.029568         1.315190         3.339453
