19
Iteration:  1151
 C         1.608391        -0.169820        -0.215036
 C         0.110087        -0.056559        -0.273048
 C        -1.054041         0.008955         0.004493
 C        -2.664783         0.217598         0.132021
 O        -2.987208         1.362879        -0.745604
 C        -3.206055         0.192048         1.523191
 C        -4.763628         0.277708         1.545750
 C        -5.404574         0.006136         2.882115
 O        -5.996718         0.809091         3.552178
 H         1.808822        -0.855671         0.566155
 H         2.079959        -0.420906        -1.191303
 H         2.005293         0.796336         0.076065
 H        -3.029808        -0.729355        -0.363866
 H        -2.788551         2.190555        -0.241915
 H        -2.696331        -0.613588         2.095486
 H        -2.735328         1.051986         1.961569
 H        -5.002540         1.172289         1.102423
 H        -5.216478        -0.283296         0.681936
 H        -5.219971        -1.005690         3.388203
