19
Iteration:  2149charge 0 multiplicity 1
 C         1.345381         0.365042        -0.398333
 C        -0.013127         0.052457        -0.055523
 C        -1.125083        -0.203243         0.291325
 C        -2.623025        -0.179237         0.291611
 O        -3.058106         1.103752        -0.267566
 C        -3.388017        -0.382382         1.613221
 C        -4.844319        -0.328019         1.408890
 C        -5.622308         0.642799         2.444773
 O        -5.081953         1.463681         3.142274
 H         1.699307         0.570500        -1.383391
 H         1.859705         1.120479         0.278824
 H         1.905365        -0.542446        -0.222892
 H        -2.875355        -0.807769        -0.547005
 H        -2.831608         1.935495         0.216893
 H        -2.908004        -1.125026         2.288939
 H        -3.261951         0.519488         2.239291
 H        -5.000296         0.066611         0.367678
 H        -5.384524        -1.259511         1.567624
 H        -6.717031         0.608620         2.229256
