19
Iteration:   389charge 0 multiplicity 1
 C         1.428996        -0.163609        -0.529633
 C         0.062449        -0.085028        -0.062840
 C        -1.119820        -0.259353         0.193212
 C        -2.526641         0.227275         0.208721
 O        -2.777593         1.358090        -0.759460
 C        -3.141776         0.469446         1.594838
 C        -4.680569         0.517039         1.634659
 C        -5.292516         0.638079         2.980454
 O        -6.279589         0.005303         3.368402
 H         2.093889         0.312192         0.105315
 H         1.690054        -1.284583        -0.519655
 H         1.535610         0.263330        -1.482129
 H        -3.230435        -0.486578        -0.393590
 H        -2.393534         1.262173        -1.621995
 H        -2.820885        -0.370163         2.298363
 H        -2.961239         1.524043         1.994027
 H        -4.920262         1.518208         1.095930
 H        -5.130082        -0.377472         1.002376
 H        -4.743165         1.435743         3.729345
