19
Iteration:  4637charge 0 multiplicity 1
 C         1.225239         0.200921         0.386919
 C        -0.150540         0.175088         0.220754
 C        -1.304581         0.337351        -0.049593
 C        -2.713863         0.094402         0.084531
 O        -3.469932        -0.228553        -1.055731
 C        -3.355932         1.213518         0.897518
 C        -4.736829         0.849323         1.412290
 C        -5.235270         0.323768         2.765837
 O        -4.659709         0.113804         3.829435
 H         1.344019        -0.643159         1.117832
 H         1.739249         0.151986        -0.546537
 H         1.603484         1.130145         0.957104
 H        -2.663372        -0.707576         0.843643
 H        -2.956734        -0.107552        -1.837237
 H        -2.627247         1.279562         1.829409
 H        -3.151602         2.237978         0.423654
 H        -5.440082         1.675243         1.138604
 H        -5.187308         0.121928         0.641515
 H        -6.324941         0.070454         2.613285
