19
Iteration:  4543charge 0 multiplicity 1
 C         1.082031         0.510848        -0.128128
 C        -0.113916        -0.038360         0.393782
 C        -1.344046        -0.046291         0.411147
 C        -2.730923        -0.066747         0.465282
 O        -3.321190        -0.099656        -0.886230
 C        -3.254211         1.212847         1.218362
 C        -4.735034         1.039273         1.242177
 C        -5.330582         0.369534         2.511778
 O        -4.657052        -0.015148         3.444477
 H         1.893420         0.290108         0.572593
 H         1.299599         0.012238        -1.090787
 H         1.042027         1.601867        -0.366481
 H        -3.169142        -0.940839         0.991314
 H        -2.723375         0.436818        -1.466107
 H        -2.718207         1.181066         2.159204
 H        -2.938155         2.161764         0.782668
 H        -5.238310         2.038632         1.276448
 H        -5.234813         0.535376         0.415193
 H        -6.434922         0.434164         2.606757
