19
Iteration:  1594charge 0 multiplicity 1
 C         1.449367        -0.077406        -0.298654
 C         0.052049        -0.052348         0.018997
 C        -1.129964         0.072981         0.373363
 C        -2.588665         0.139458         0.271612
 O        -2.959708         1.054414        -0.824424
 C        -3.350317         0.500711         1.505100
 C        -4.919456         0.318107         1.263775
 C        -5.745349         0.242831         2.575922
 O        -5.188144         0.529321         3.645330
 H         1.723770        -1.049812        -0.632208
 H         1.729062         0.756253        -0.988744
 H         1.971092         0.071712         0.623032
 H        -2.949024        -0.968003         0.098757
 H        -2.761008         1.996134        -0.533420
 H        -3.059391        -0.060267         2.405540
 H        -3.222488         1.595379         1.576134
 H        -5.323754         1.007397         0.529405
 H        -5.129829        -0.643204         0.852709
 H        -6.823880        -0.028828         2.597811
