19
Iteration:  2537charge 0 multiplicity 1
 C         1.200690         0.787406        -0.057858
 C        -0.169730         0.145657         0.186985
 C        -1.293961        -0.269807         0.219464
 C        -2.735616        -0.465307         0.047409
 O        -3.305194         0.876725        -0.419633
 C        -3.521304        -0.668972         1.410195
 C        -4.905584        -0.031472         1.324682
 C        -5.222925         0.820312         2.517060
 O        -4.444551         1.350536         3.320262
 H         0.946041         1.790826        -0.307280
 H         1.860223         0.462270         0.688546
 H         1.485053         0.223327        -0.944382
 H        -2.960805        -1.201225        -0.781453
 H        -2.576252         1.393585        -0.777917
 H        -3.521920        -1.756556         1.644694
 H        -3.280735         0.081128         2.173112
 H        -4.979121         0.811418         0.590192
 H        -5.829191        -0.466737         1.062589
 H        -6.349789         0.972683         2.656367
