19
Iteration:  1550
 C         1.485014        -0.262688        -0.388185
 C         0.127853         0.064286         0.048867
 C        -1.082022         0.171777         0.220005
 C        -2.518139         0.243069         0.260561
 O        -3.099687         0.984187        -0.809894
 C        -3.233801         0.576297         1.674788
 C        -4.750921         0.335954         1.406576
 C        -5.682944         0.095509         2.547265
 O        -5.581459         0.612428         3.618889
 H         1.516986        -1.303293        -0.617074
 H         1.805799         0.380886        -1.231894
 H         2.137135        -0.076927         0.435252
 H        -2.775628        -0.795942        -0.147122
 H        -2.904605         1.964439        -0.639893
 H        -2.728951        -0.220747         2.265265
 H        -3.003216         1.604512         1.985015
 H        -5.059394         1.246147         0.901876
 H        -4.967488        -0.433605         0.720059
 H        -6.280930        -0.844874         2.334452
