19
Iteration:   981
 C         1.488283        -0.277712        -0.399170
 C         0.094197         0.038524        -0.194398
 C        -1.157679         0.009515        -0.030471
 C        -2.645055         0.166691         0.191397
 O        -3.053917         1.336874        -0.575959
 C        -2.981436         0.257790         1.690834
 C        -4.481217         0.521702         1.710885
 C        -5.177571         0.321748         3.028442
 O        -6.384849         0.409428         3.124870
 H         1.893615        -0.718396         0.558156
 H         1.580109        -0.976827        -1.187222
 H         2.036228         0.657790        -0.633662
 H        -3.331439        -0.650377        -0.285651
 H        -2.539477         1.350108        -1.370835
 H        -2.680492        -0.726762         2.026933
 H        -2.249896         1.013546         2.102625
 H        -4.819677         1.525992         1.307709
 H        -5.087094        -0.098322         0.984873
 H        -4.503319        -0.016423         3.918840
