19
Iteration:  2375charge 0 multiplicity 1
 C         0.977924         0.453470         0.712780
 C        -0.329875         0.208384         0.058916
 C        -1.497625         0.063859        -0.273481
 C        -2.981315        -0.070391        -0.100318
 O        -3.678520         1.107215        -0.372099
 C        -3.211796        -0.830044         1.263180
 C        -4.777946        -0.647369         1.845888
 C        -4.850941         0.887501         2.190679
 O        -4.134310         1.509972         2.963667
 H         1.638621         1.286458         0.347149
 H         1.056584         0.280359         1.724182
 H         1.626171        -0.443491         0.497441
 H        -3.315971        -0.748283        -0.885220
 H        -3.175595         1.860723        -0.011529
 H        -3.267029        -1.904716         1.308260
 H        -2.564827        -0.499383         2.046338
 H        -5.488866        -0.725341         1.056609
 H        -4.862000        -1.363896         2.775801
 H        -5.576434         1.386541         1.458945
