19
Iteration:  4922
 C         1.227284         0.271989         0.600020
 C        -0.127612         0.260242         0.005641
 C        -1.352726         0.201428        -0.004946
 C        -2.703965         0.089954         0.342832
 O        -3.456517        -0.442749        -0.868276
 C        -3.508982         1.247505         0.895316
 C        -5.039673         1.074169         1.271843
 C        -5.189058         0.457097         2.749938
 O        -4.294245        -0.056108         3.415152
 H         2.156465        -0.036304         0.117517
 H         1.258426         1.334594         0.839192
 H         1.198846        -0.367181         1.579882
 H        -2.802158        -0.657843         1.188103
 H        -2.877759        -0.433888        -1.658227
 H        -2.945061         1.558806         1.796083
 H        -3.289195         2.062395         0.234544
 H        -5.536292         2.039386         1.250620
 H        -5.590905         0.366490         0.555922
 H        -6.210993         0.577743         3.181426
