19
Iteration:  4089
 C         1.236277         0.770008        -0.447966
 C        -0.103095         0.290190         0.136059
 C        -1.169221        -0.228274         0.666857
 C        -2.694709        -0.233211         0.748532
 O        -3.171465        -0.399223        -0.741246
 C        -3.109553         1.110809         1.273467
 C        -4.722848         1.219113         1.352821
 C        -5.516902         0.605144         2.412196
 O        -5.099821        -0.124757         3.264816
 H         1.567236         1.771003        -0.157857
 H         2.051173        -0.012033        -0.127262
 H         1.219448         0.693404        -1.528148
 H        -3.151451        -0.919546         1.440780
 H        -3.569391        -1.272972        -0.885715
 H        -2.586989         1.141156         2.270194
 H        -2.632190         1.968437         0.672002
 H        -4.939641         2.292962         1.630279
 H        -5.114804         1.052212         0.385626
 H        -6.544146         0.945849         2.402841
