19
Iteration:  2528
 C         1.157160         0.744804        -0.085679
 C        -0.132106         0.205936         0.234399
 C        -1.294722        -0.251055         0.209789
 C        -2.748189        -0.443898         0.076351
 O        -3.281135         0.874246        -0.414587
 C        -3.552534        -0.696742         1.388029
 C        -5.004117        -0.033978         1.360350
 C        -5.267569         0.857107         2.541091
 O        -4.382236         1.310215         3.236677
 H         1.262333         1.873158        -0.252653
 H         1.850530         0.755888         0.743819
 H         1.608286         0.339094        -1.058898
 H        -2.931175        -1.316072        -0.565732
 H        -2.513099         1.268098        -0.841012
 H        -3.661014        -1.790086         1.591746
 H        -2.949001        -0.278324         2.203971
 H        -4.656512         0.693176         0.671850
 H        -5.924590        -0.406975         1.006764
 H        -6.355790         1.085242         2.840967
