19
Iteration:  4493charge 0 multiplicity 1
 C         1.267392         0.407435        -0.269725
 C        -0.147612         0.217733         0.064944
 C        -1.255157         0.044342         0.509767
 C        -2.711738        -0.124701         0.652257
 O        -3.130556        -0.155561        -0.729289
 C        -3.345080         1.112825         1.216126
 C        -4.832809         1.272665         1.392547
 C        -5.428391         0.521436         2.547129
 O        -4.849589        -0.269840         3.257697
 H         1.904583         0.302658         0.619110
 H         1.633909        -0.245821        -1.118743
 H         1.305097         1.388975        -0.725847
 H        -3.103340        -1.035498         1.159388
 H        -2.653806        -0.968898        -1.042692
 H        -2.595504         1.520554         1.901294
 H        -3.214471         1.905027         0.431354
 H        -5.103051         2.261196         1.752744
 H        -5.526417         1.115456         0.559313
 H        -6.520340         0.829713         2.834675
