19
Iteration:  3858charge 0 multiplicity 1
 C         1.218902         0.129446         0.365481
 C        -0.210587         0.062583         0.449589
 C        -1.404319         0.252330         0.478780
 C        -2.996928         0.180057         0.455965
 O        -3.348659        -0.317682        -0.904271
 C        -3.787082         1.405145         0.689681
 C        -5.107860         0.874243         1.227281
 C        -4.961064         0.342766         2.636743
 O        -3.949671         0.141168         3.280742
 H         1.476925         1.018318        -0.207450
 H         1.682602         0.156331         1.368409
 H         1.580464        -0.744310        -0.159408
 H        -3.173975        -0.545271         1.230742
 H        -2.437154        -0.509710        -1.196217
 H        -3.141770         2.152645         1.227283
 H        -3.871765         1.717817        -0.392473
 H        -5.867017         1.705173         1.229645
 H        -5.512313         0.245143         0.270178
 H        -5.952279         0.371292         3.141922
