19
Iteration:  4376charge 0 multiplicity 1
 C         1.213619         0.337030        -0.349883
 C        -0.180085         0.243819        -0.053826
 C        -1.302866         0.003540         0.384868
 C        -2.595401         0.170553         0.889288
 O        -3.439132        -0.491973        -0.089620
 C        -3.177547         1.597075         1.285256
 C        -4.772779         1.577769         1.448354
 C        -5.336429         0.277508         2.151679
 O        -4.797507        -0.555786         2.825341
 H         1.561853         0.424819         0.707370
 H         1.504438        -0.590694        -0.771186
 H         1.632384         1.205458        -0.956380
 H        -2.676196        -0.298126         1.874579
 H        -3.129273        -1.231445        -0.657110
 H        -2.790179         1.939697         2.252503
 H        -2.926706         2.396162         0.570643
 H        -5.055444         2.595387         1.943876
 H        -5.153297         1.528257         0.414379
 H        -6.367076        -0.020539         1.958879
