19
Iteration:   763charge 0 multiplicity 1
 C         1.362206        -0.498686         0.108131
 C        -0.001730        -0.012240        -0.008068
 C        -1.239536         0.061920        -0.021625
 C        -2.640622         0.326420        -0.124511
 O        -2.944717         1.690172        -0.644165
 C        -3.350212         0.136078         1.232878
 C        -4.895664         0.340626         1.412408
 C        -5.223043         0.745413         2.794477
 O        -5.506359        -0.027016         3.708607
 H         1.707287        -0.531201         1.187716
 H         1.315732        -1.520746        -0.225125
 H         2.124982         0.085416        -0.484505
 H        -3.038085        -0.471476        -0.845911
 H        -2.321778         1.997953        -1.337358
 H        -3.120306        -0.813905         1.626298
 H        -2.891180         0.973524         1.820022
 H        -5.126705         1.014635         0.677145
 H        -5.417618        -0.587570         1.134464
 H        -5.168933         1.803340         2.881100
