19
Iteration:  4269
 C         1.287189         0.380869        -0.615628
 C        -0.147330         0.076343        -0.161869
 C        -1.141214         0.233026         0.594241
 C        -2.517518         0.025366         1.074762
 O        -3.390663        -0.371575        -0.081980
 C        -3.170698         1.476733         1.351628
 C        -4.747999         1.456394         1.367347
 C        -5.358809         0.250098         2.002413
 O        -5.127741        -0.430952         3.027487
 H         1.664733         0.747455         0.376119
 H         1.930476        -0.431104        -0.774011
 H         1.363237         1.336576        -1.211715
 H        -2.644722        -0.694006         1.935278
 H        -3.158835        -0.961005        -0.815989
 H        -2.871376         2.040876         2.248194
 H        -2.853627         1.974267         0.445419
 H        -5.067411         2.354768         1.756734
 H        -5.228605         1.375146         0.330828
 H        -6.292266        -0.010984         1.418809
