19
Iteration:  4007
 C         1.311130         0.596275         0.128295
 C        -0.121360         0.219339         0.337080
 C        -1.278122        -0.024607         0.212387
 C        -2.753940        -0.108512         0.468151
 O        -3.578627        -0.390388        -0.604845
 C        -3.263450         1.286656         0.944292
 C        -4.765377         1.161437         1.271357
 C        -5.282345         0.493099         2.491701
 O        -4.609409        -0.157822         3.317052
 H         1.412692         1.718586         0.113395
 H         1.952893         0.213348         0.898719
 H         1.668512         0.189394        -0.870524
 H        -2.922036        -0.783646         1.366587
 H        -3.645036        -1.325066        -0.913860
 H        -2.591156         1.656710         1.742088
 H        -3.197619         1.932348         0.054167
 H        -5.247740         2.178054         1.234530
 H        -5.175851         0.694858         0.321667
 H        -6.402066         0.499142         2.601903
