19
Iteration:  2206
 C         1.350996         0.284793        -0.203189
 C        -0.051039         0.127519         0.218342
 C        -1.253521         0.097339         0.406343
 C        -2.729450        -0.099599         0.177991
 O        -3.365122         1.081787        -0.301209
 C        -3.355354        -0.629198         1.415693
 C        -4.938635        -0.460709         1.509194
 C        -5.317990         0.628126         2.460840
 O        -4.748244         1.593901         2.887137
 H         1.471933         0.681143        -1.181218
 H         2.110331         0.908803         0.403503
 H         1.839598        -0.690337        -0.297492
 H        -2.883657        -0.687535        -0.714018
 H        -3.076353         1.912710         0.121402
 H        -3.071904        -1.686388         1.388917
 H        -2.995904         0.071678         2.150630
 H        -5.256273        -0.265907         0.454514
 H        -5.361715        -1.414885         1.978557
 H        -6.422293         0.766947         2.675996
