19
Iteration:  1071charge 0 multiplicity 1
 C         1.386783        -0.157089        -0.423897
 C         0.032740         0.085847        -0.022943
 C        -1.208990        -0.019430         0.150619
 C        -2.666349         0.080062         0.053964
 O        -2.846756         1.347256        -0.619830
 C        -3.084130         0.250183         1.573721
 C        -4.609693         0.513835         1.649268
 C        -5.161076         0.123916         2.955359
 O        -6.220052         0.586037         3.301651
 H         1.953841        -0.836538         0.232780
 H         1.353782        -0.722981        -1.347274
 H         1.983109         0.738973        -0.548456
 H        -3.181716        -0.819336        -0.471730
 H        -2.316586         1.183019        -1.418137
 H        -2.976727        -0.720301         2.040173
 H        -2.517144         1.108268         1.977191
 H        -4.698428         1.496909         1.270974
 H        -5.017360        -0.286767         0.926113
 H        -4.823388        -0.831408         3.382375
