19
Iteration:  2994charge 0 multiplicity 1
 C         1.332696         0.223969         0.094439
 C        -0.149906         0.102190         0.027331
 C        -1.379157         0.227880        -0.165249
 C        -2.790496        -0.094832         0.114569
 O        -3.674107         0.719430        -0.553943
 C        -2.995312        -0.282296         1.631565
 C        -4.514709        -0.422321         1.870236
 C        -5.277363         0.774671         2.258642
 O        -4.879993         1.574152         3.098332
 H         1.800198        -0.014709         1.021816
 H         1.625314        -0.462935        -0.655238
 H         1.598989         1.132784        -0.383513
 H        -3.034842        -1.148795        -0.184888
 H        -3.929835         1.424896         0.045057
 H        -2.457210        -1.223822         1.805004
 H        -2.432478         0.456705         2.239399
 H        -4.936852        -0.948539         0.890532
 H        -4.753222        -1.235220         2.720004
 H        -6.335575         0.758013         1.973277
