19
Iteration:  4002charge 0 multiplicity 1
 C         1.311191         0.572108         0.155945
 C        -0.092550         0.232056         0.327567
 C        -1.314955         0.001629         0.185956
 C        -2.762691        -0.082694         0.490266
 O        -3.607902        -0.408330        -0.618251
 C        -3.260786         1.274228         0.955179
 C        -4.743476         1.171210         1.273104
 C        -5.256884         0.479041         2.483296
 O        -4.601254        -0.160147         3.323757
 H         1.341236         1.642984         0.129800
 H         2.008518         0.183286         0.948770
 H         1.706004         0.187397        -0.753400
 H        -2.851926        -0.780461         1.316255
 H        -3.476379        -1.312181        -0.936643
 H        -2.544006         1.821356         1.576131
 H        -3.478589         1.870590         0.035643
 H        -5.372225         2.072536         1.273721
 H        -5.168581         0.728497         0.351783
 H        -6.373181         0.596757         2.497903
