19
Iteration:  1718
 C         1.220159         0.220049         0.636651
 C        -0.108441        -0.073531         0.034536
 C        -1.271372        -0.013526        -0.179527
 C        -2.677953        -0.044389        -0.236926
 O        -3.415442         1.011368        -0.916584
 C        -3.209164         0.082259         1.304152
 C        -4.723678         0.533487         1.324142
 C        -5.267075         0.738596         2.680586
 O        -4.909730         0.289625         3.731563
 H         1.952803        -0.542844         0.323080
 H         1.468190         1.224483         0.451214
 H         0.984795         0.106714         1.720342
 H        -2.968993        -1.090542        -0.521846
 H        -2.890984         1.135212        -1.759836
 H        -3.021314        -0.733448         2.037278
 H        -2.617632         0.825707         1.900308
 H        -4.950506         1.385621         0.651416
 H        -5.204051        -0.279399         0.828284
 H        -6.104474         1.575044         2.738583
