19
Iteration:  3575
 C         1.216382         0.430615        -0.320082
 C        -0.127459         0.128108         0.033385
 C        -1.236875        -0.228266         0.278994
 C        -2.615272        -0.335306         0.196852
 O        -3.104689         0.578153        -0.865537
 C        -3.185403         0.215058         1.592743
 C        -4.673213         0.127030         1.521827
 C        -5.547940         0.755806         2.528575
 O        -5.153667         1.035400         3.638829
 H         1.432043         0.235554        -1.373809
 H         1.647732         1.417182        -0.044365
 H         1.835721        -0.220171         0.291364
 H        -3.187039        -1.270013        -0.057970
 H        -2.459640         1.248044        -1.171533
 H        -3.032662        -0.558907         2.384380
 H        -2.750216         1.184281         1.876672
 H        -4.829901         0.809787         0.604214
 H        -4.899861        -0.989882         1.156528
 H        -6.592957         0.958750         2.163427
