19
Iteration:  3494charge 0 multiplicity 1
 C         1.446989         0.119519        -0.447069
 C        -0.031267         0.199008        -0.240225
 C        -1.099740        -0.048117         0.296408
 C        -2.525446        -0.079681         0.304110
 O        -3.087560         0.910807        -0.697893
 C        -3.325724        -0.001397         1.744656
 C        -4.853918        -0.209973         1.515929
 C        -5.549347         0.374587         2.758982
 O        -5.325196         1.456074         3.268959
 H         1.726442        -0.494803        -1.369000
 H         1.886729         1.122893        -0.578651
 H         1.922002        -0.474087         0.418601
 H        -2.955688        -0.948201        -0.027726
 H        -2.811147         1.833167        -0.543601
 H        -2.990750        -0.953568         2.305251
 H        -3.202651         0.808446         2.506163
 H        -5.164365         0.166319         0.512791
 H        -5.064217        -1.272848         1.560220
 H        -6.488804        -0.123354         3.057348
