19
Iteration:  3834charge 0 multiplicity 1
 C         1.177205         0.147545         0.366841
 C        -0.222905         0.085886         0.379370
 C        -1.435172         0.248667         0.492918
 C        -2.879408         0.013787         0.252994
 O        -3.187617        -0.272628        -1.016457
 C        -3.752134         1.277286         0.784997
 C        -5.165202         0.959490         1.394049
 C        -5.078726         0.355985         2.677362
 O        -4.012442         0.317248         3.303931
 H         1.411072         1.023924        -0.273681
 H         1.501434         0.322138         1.353959
 H         1.655458        -0.777350        -0.024147
 H        -3.060033        -0.852629         0.865570
 H        -2.782913        -1.095078        -1.323122
 H        -3.065153         1.503685         1.668166
 H        -3.535200         1.982605        -0.001428
 H        -5.906503         1.792419         1.375588
 H        -5.702659         0.147057         0.699329
 H        -6.011829        -0.107629         3.048734
