19
Iteration:  3956charge 0 multiplicity 1
 C         1.278858         0.294137         0.477442
 C        -0.110061         0.333524         0.042078
 C        -1.358913         0.178604         0.094630
 C        -2.764007         0.163780         0.422893
 O        -3.458921        -0.772586        -0.665228
 C        -3.507652         1.442986         0.849158
 C        -4.962077         1.268692         1.377314
 C        -5.176492         0.375159         2.555937
 O        -4.354603        -0.129440         3.284376
 H         1.712398         1.291354         0.436847
 H         1.363673        -0.150841         1.496397
 H         1.871651        -0.378042        -0.136171
 H        -2.790118        -0.425263         1.318796
 H        -3.205362        -0.587543        -1.590394
 H        -3.014741         1.724097         1.816911
 H        -3.446579         2.197734         0.030856
 H        -5.337566         2.267981         1.684055
 H        -5.639287         1.096267         0.574617
 H        -6.281199         0.392240         2.796796
