19
Iteration:  3340
 C         1.305800        -0.139312         0.126613
 C        -0.227229        -0.068618         0.062807
 C        -1.414928         0.177421        -0.284879
 C        -2.859059         0.170225        -0.041021
 O        -3.469250         1.351260        -0.583729
 C        -2.966882         0.031480         1.536616
 C        -4.298589        -0.633903         2.028410
 C        -5.336169         0.321666         2.505356
 O        -5.145738         1.437322         2.970040
 H         1.712214        -1.084807        -0.109923
 H         1.782302         0.538830        -0.568059
 H         1.449820         0.321060         1.091802
 H        -3.305326        -0.756462        -0.572290
 H        -3.285546         2.172962        -0.100728
 H        -2.196207        -0.649066         1.954111
 H        -2.829703         1.016126         2.048203
 H        -4.673807        -1.558364         1.473528
 H        -3.892082        -1.071242         2.911738
 H        -6.378880        -0.060589         2.632460
