19
Iteration:  4233charge 0 multiplicity 1
 C         1.338568         0.287257        -0.611424
 C        -0.007680         0.458878         0.098726
 C        -1.176203         0.223106         0.284518
 C        -2.485143         0.077209         0.832387
 O        -3.423933        -0.599994        -0.093685
 C        -3.218830         1.359716         1.573413
 C        -4.716724         1.337520         1.334585
 C        -5.482419         0.333165         2.045916
 O        -5.155656        -0.274750         3.060478
 H         2.090062         0.640493         0.106570
 H         1.626485        -0.705359        -0.971598
 H         1.436417         0.816556        -1.562767
 H        -2.433616        -0.648756         1.619828
 H        -2.886909        -0.678507        -0.890602
 H        -3.017036         1.214662         2.652370
 H        -2.897027         2.408682         1.381188
 H        -5.188092         2.257905         1.745411
 H        -4.982800         1.273962         0.329807
 H        -6.506040         0.177347         1.614261
