19
Iteration:  2859charge 0 multiplicity 1
 C         1.406352         0.154588        -0.101648
 C        -0.057867        -0.146234         0.076946
 C        -1.287395        -0.278206        -0.064217
 C        -2.710596        -0.001293         0.033954
 O        -3.108445         0.959234        -0.987184
 C        -3.340327         0.503122         1.363804
 C        -4.595212        -0.323939         1.908574
 C        -5.197251         0.291807         3.104096
 O        -5.446861         1.492840         3.277624
 H         1.960578         0.709447         0.653705
 H         1.881703        -0.757644        -0.185857
 H         1.528169         0.723134        -0.998445
 H        -3.275683        -0.877305        -0.229790
 H        -3.174247         0.681144        -1.918961
 H        -2.529481         0.493024         2.121188
 H        -3.580817         1.538953         1.149768
 H        -5.586211        -0.435096         1.266003
 H        -4.144357        -1.382532         2.147604
 H        -5.820107        -0.545184         3.658647
