19
Iteration:  1139charge 0 multiplicity 1
 C         1.599050        -0.159872        -0.260980
 C         0.128404        -0.090768        -0.229983
 C        -1.063091         0.058810         0.016486
 C        -2.454922         0.185636         0.044526
 O        -2.994065         1.310706        -0.701512
 C        -3.200817         0.225456         1.510317
 C        -4.851889         0.349055         1.445653
 C        -5.389061         0.020985         2.938895
 O        -6.079217         0.792046         3.617263
 H         2.025153        -0.849776         0.402834
 H         1.979768        -0.511731        -1.258768
 H         2.036434         0.796190        -0.048644
 H        -2.939515        -0.605919        -0.540803
 H        -2.649285         2.103533        -0.303353
 H        -3.110150        -0.714957         2.071184
 H        -2.934532         1.050206         2.140737
 H        -5.186948         1.290005         1.348091
 H        -5.247971        -0.486559         0.824520
 H        -5.044896        -1.018961         3.309532
