19
Iteration:  2709charge 0 multiplicity 1
 C         1.364189        -0.343708         0.013497
 C         0.028776         0.301695        -0.152476
 C        -1.199517         0.362277        -0.018033
 C        -2.627488         0.155611         0.132562
 O        -3.413725         0.622644        -0.983700
 C        -3.266764         0.518138         1.504198
 C        -4.634719        -0.177177         1.649429
 C        -5.335211         0.171811         2.922066
 O        -5.265829         1.298524         3.390039
 H         1.982413         0.407660         0.588777
 H         1.193791        -1.374749         0.566761
 H         1.790750        -0.710698        -0.934821
 H        -2.625322        -0.930807         0.320973
 H        -2.878511         1.393776        -1.279596
 H        -2.621840         0.511644         2.330814
 H        -3.488456         1.614712         1.572317
 H        -5.188337         0.094839         0.783345
 H        -4.435477        -1.189459         1.566892
 H        -5.826642        -0.641131         3.529211
