19
Iteration:  2352
 C         0.915784         0.343384         0.691809
 C        -0.418583         0.191432         0.174037
 C        -1.562620        -0.003255        -0.217642
 C        -3.018752        -0.089461        -0.233570
 O        -3.670187         1.176665        -0.202084
 C        -3.184227        -0.789756         1.168336
 C        -4.498333        -0.624436         1.843016
 C        -4.880357         0.839511         2.151376
 O        -4.180223         1.549217         2.846702
 H         1.309865         1.304268         0.271633
 H         0.854758         0.461752         1.739964
 H         1.755781        -0.392562         0.681263
 H        -3.280492        -0.516721        -1.180774
 H        -3.060814         1.822244         0.173874
 H        -3.053680        -1.840614         1.339842
 H        -2.498545        -0.247067         1.787445
 H        -5.332381        -1.053103         1.327509
 H        -4.385671        -0.933068         2.958807
 H        -5.933444         1.157767         1.809621
