19
Iteration:  1437charge 0 multiplicity 1
 C         1.445795        -0.037861        -0.085299
 C        -0.049181        -0.192912         0.047738
 C        -1.229877        -0.002818         0.117200
 C        -2.661338         0.190749        -0.017071
 O        -3.059084         1.428174        -0.612450
 C        -3.265067         0.167747         1.397843
 C        -4.810689         0.163171         1.373037
 C        -5.162346         0.019991         2.840164
 O        -5.681977         0.895088         3.473074
 H         2.007576        -1.010024        -0.163604
 H         1.648541         0.359753        -1.060561
 H         1.926914         0.673094         0.626515
 H        -2.961120        -0.673988        -0.609608
 H        -2.506296         1.710493        -1.373013
 H        -2.772183        -0.650213         2.047793
 H        -2.717068         1.035505         1.858673
 H        -5.133442         1.094230         0.898179
 H        -5.083350        -0.653596         0.766139
 H        -4.792465        -0.982220         3.343006
