19
Iteration:  1186charge 0 multiplicity 1
 C         1.337982        -0.141941        -0.085916
 C        -0.011270        -0.026522         0.003858
 C        -1.240847         0.016767        -0.158084
 C        -2.640686         0.170767         0.076003
 O        -3.102679         1.419793        -0.630851
 C        -3.006537         0.185814         1.508487
 C        -4.577819         0.137148         1.451924
 C        -5.350825        -0.034873         2.836791
 O        -5.827248         0.915418         3.432470
 H         1.735943        -0.974547         0.550800
 H         1.687603        -0.396551        -1.070124
 H         1.801576         0.804997         0.278148
 H        -3.242198        -0.636119        -0.531463
 H        -2.440813         2.126369        -0.463588
 H        -2.397739        -0.642062         1.822641
 H        -2.653875         1.160406         1.872997
 H        -4.871442         1.152973         1.153568
 H        -4.751939        -0.788049         0.883372
 H        -5.144080        -1.083247         3.256975
