19
Iteration:  4670charge 0 multiplicity 1
 C         1.361948         0.096820         0.501922
 C        -0.026593         0.332973         0.091759
 C        -1.224230         0.189700        -0.018331
 C        -2.706635         0.075360         0.181644
 O        -3.540767        -0.090622        -1.102398
 C        -3.598798         1.258126         0.937886
 C        -4.934059         0.733112         1.290186
 C        -5.242588         0.385868         2.847540
 O        -4.466120         0.145414         3.763222
 H         1.390626        -0.901826         1.001677
 H         2.078549         0.130101        -0.284135
 H         1.599531         0.837030         1.323003
 H        -2.780851        -0.865036         0.696335
 H        -2.876088        -0.108210        -1.822303
 H        -2.958805         1.549157         1.771970
 H        -3.542659         1.931847         0.083376
 H        -5.760182         1.369861         0.947699
 H        -5.189342        -0.276181         0.823723
 H        -6.391994         0.309751         3.069081
