19
Iteration:  2713
 C         1.366730        -0.372879        -0.026885
 C         0.015907         0.302574        -0.112726
 C        -1.185291         0.377886        -0.030764
 C        -2.650786         0.152501         0.136014
 O        -3.368521         0.611651        -0.990632
 C        -3.297925         0.570611         1.474408
 C        -4.638930        -0.167555         1.675995
 C        -5.347930         0.155650         2.954519
 O        -5.276270         1.291632         3.375770
 H         1.874038         0.344654         0.557218
 H         1.185351        -1.215015         0.571618
 H         1.868636        -0.670887        -0.954496
 H        -2.596864        -0.941522         0.300346
 H        -2.820946         1.365859        -1.235174
 H        -2.632148         0.452272         2.399231
 H        -3.303854         1.667172         1.631690
 H        -5.339522         0.113512         0.782156
 H        -4.348309        -1.305627         1.559697
 H        -5.731590        -0.709937         3.538726
