19
Iteration:   570charge 0 multiplicity 1
 C         1.421210        -0.450593         0.134532
 C        -0.026971        -0.266831        -0.043316
 C        -1.267126        -0.098673        -0.038582
 C        -2.721806         0.356397        -0.031959
 O        -3.010139         1.614876        -0.824575
 C        -3.226954         0.688479         1.274677
 C        -4.752376         0.620063         1.509045
 C        -5.011985         0.505374         3.006497
 O        -5.788550        -0.254535         3.533567
 H         1.761521         0.034818         1.083392
 H         1.757182        -1.455990         0.156403
 H         1.951195         0.029445        -0.693167
 H        -3.307356        -0.462155        -0.647713
 H        -2.888214         1.339193        -1.770714
 H        -2.632056        -0.058350         1.927225
 H        -3.014008         1.714613         1.519225
 H        -5.313079         1.447455         1.083540
 H        -5.184726        -0.097894         0.883268
 H        -4.346612         1.230703         3.563126
