19
Iteration:   110charge 0 multiplicity 1
 C         1.401648         0.109320         0.132112
 C        -0.051267        -0.141581        -0.160104
 C        -1.287333        -0.079191        -0.153333
 C        -2.727235         0.057528        -0.117617
 O        -2.972401         1.454626        -0.381228
 C        -3.155562        -0.222801         1.357481
 C        -4.711647         0.167667         1.435286
 C        -4.948453         0.794664         2.761703
 O        -5.884799         0.514055         3.460888
 H         1.580631         0.647746         1.058391
 H         2.025054        -0.741493         0.084299
 H         1.686002         0.800511        -0.660661
 H        -3.355380        -0.528853        -0.778704
 H        -3.796048         1.502741        -0.924795
 H        -2.980357        -1.230765         1.469452
 H        -2.267224        -0.067606         2.165047
 H        -4.969034         0.881763         0.729596
 H        -5.349018        -0.695921         1.349971
 H        -4.127005         1.464494         3.346018
