19
Iteration:  1140
 C         1.600380        -0.161037        -0.257223
 C         0.135006        -0.088459        -0.238877
 C        -1.075554         0.055380         0.017762
 C        -2.462600         0.191954         0.055678
 O        -2.995170         1.314761        -0.708679
 C        -3.191023         0.219919         1.512901
 C        -4.849921         0.342228         1.449234
 C        -5.391729         0.016329         2.937266
 O        -6.073498         0.794643         3.613895
 H         2.027515        -0.856876         0.418485
 H         1.995431        -0.510614        -1.246111
 H         2.037332         0.804313        -0.031078
 H        -2.973144        -0.611419        -0.556609
 H        -2.658833         2.098727        -0.281337
 H        -3.129864        -0.697943         2.085526
 H        -2.937060         1.063687         2.112192
 H        -5.158628         1.308764         1.336913
 H        -5.248366        -0.487651         0.802841
 H        -5.062443        -1.009760         3.330811
