19
Iteration:  2266
 C         1.189886         0.217537         0.353805
 C        -0.223572         0.255080         0.005466
 C        -1.414172         0.094546        -0.027472
 C        -2.877273        -0.028274         0.053724
 O        -3.614608         1.253004        -0.120136
 C        -3.245163        -0.692651         1.423422
 C        -4.776094        -0.646294         1.736266
 C        -5.119859         0.699066         2.226263
 O        -4.352451         1.545534         2.645318
 H         1.729655         0.921869        -0.376007
 H         1.301135         0.603526         1.350843
 H         1.567597        -0.834610         0.260677
 H        -3.185756        -0.736429        -0.775101
 H        -3.262422         1.772715         0.662573
 H        -2.877707        -1.724381         1.545670
 H        -2.573868        -0.151112         2.117196
 H        -5.286309        -1.179398         0.902409
 H        -5.092634        -1.318312         2.590960
 H        -6.247598         0.879295         2.212774
