19
Iteration:  1555
 C         1.487547        -0.243987        -0.400192
 C         0.094829         0.075937         0.062623
 C        -1.078689         0.146577         0.236710
 C        -2.523351         0.213944         0.281340
 O        -3.100258         1.005484        -0.832331
 C        -3.217956         0.561704         1.645544
 C        -4.762517         0.350988         1.368808
 C        -5.682084         0.076061         2.542006
 O        -5.548463         0.621755         3.634670
 H         1.579223        -1.335291        -0.691003
 H         1.960121         0.296525        -1.231377
 H         2.151198        -0.046914         0.493449
 H        -2.906341        -0.757246         0.033593
 H        -2.944205         1.863736        -0.450896
 H        -2.748193        -0.001340         2.480767
 H        -3.094053         1.553064         2.129856
 H        -5.123870         1.261755         0.828282
 H        -4.970590        -0.514481         0.629415
 H        -6.353465        -0.773177         2.283211
