19
Iteration:  3992charge 0 multiplicity 1
 C         1.313639         0.499675         0.263991
 C        -0.139152         0.219187         0.245511
 C        -1.313244         0.117165         0.143209
 C        -2.727361        -0.012368         0.542378
 O        -3.678432        -0.495013        -0.672866
 C        -3.325048         1.324088         0.898518
 C        -4.728634         1.201374         1.334224
 C        -5.175016         0.412188         2.460916
 O        -4.592019        -0.152565         3.333025
 H         1.470676         1.562330         0.205274
 H         1.844968         0.165360         1.182039
 H         1.764197         0.125294        -0.624330
 H        -2.824524        -0.883543         1.205344
 H        -2.964563        -1.111674        -0.909144
 H        -2.726903         2.056358         1.413420
 H        -3.292852         1.749597        -0.129948
 H        -5.224691         2.175078         1.393906
 H        -5.315126         0.505839         0.599891
 H        -6.269242         0.566490         2.615559
