19
Iteration:  1862charge 0 multiplicity 1
 C         1.158467         0.051938         0.669646
 C        -0.256065         0.020266         0.285761
 C        -1.429062        -0.140789         0.020049
 C        -2.905321        -0.013469        -0.170227
 O        -3.146695         0.986471        -1.252905
 C        -3.404177         0.627972         1.086097
 C        -4.758947         0.325287         1.266188
 C        -5.244220         0.535747         2.770796
 O        -4.546401         0.337785         3.760490
 H         1.819384        -0.443403        -0.127847
 H         1.483412         1.063306         0.797294
 H         1.348870        -0.529581         1.638137
 H        -3.374163        -0.946045        -0.534672
 H        -2.324804         1.476871        -1.066710
 H        -2.787956         0.402813         2.032627
 H        -3.243946         1.737985         1.214857
 H        -5.507428         0.800056         0.621211
 H        -4.954579        -0.739571         1.278297
 H        -6.289803         0.843773         3.049257
