19
Iteration:   953charge 0 multiplicity 1
 C         1.354869        -0.319453        -0.426671
 C         0.117783         0.090893         0.006602
 C        -1.090671         0.052853         0.057634
 C        -2.584451         0.144900         0.104010
 O        -3.074737         1.319645        -0.556248
 C        -3.031453         0.237728         1.559648
 C        -4.543199         0.535880         1.634954
 C        -5.116353         0.415154         3.017401
 O        -6.323582         0.314515         3.175321
 H         1.942632        -0.759747         0.385098
 H         1.244947        -1.172271        -1.189903
 H         1.960756         0.503074        -0.805503
 H        -3.101884        -0.639980        -0.427401
 H        -2.413798         1.600564        -1.188417
 H        -2.783300        -0.785575         1.913042
 H        -2.392690         1.046745         1.884757
 H        -4.800773         1.538713         1.347502
 H        -5.107625        -0.144620         0.987931
 H        -4.498548         0.527153         3.924546
