19
Iteration:  1117
 C         1.633335        -0.180053        -0.421715
 C         0.167449        -0.096087         0.000199
 C        -1.046623         0.141947         0.094887
 C        -2.583038         0.155985         0.114150
 O        -2.976936         1.304799        -0.712304
 C        -3.263439         0.155053         1.416852
 C        -4.828309         0.450410         1.507121
 C        -5.320017         0.130511         2.905624
 O        -6.141961         0.673983         3.610151
 H         2.250406        -0.813730         0.142997
 H         1.744095        -0.558163        -1.473520
 H         2.068738         0.796391        -0.338527
 H        -2.960120        -0.673689        -0.536665
 H        -2.146012         1.866139        -0.711590
 H        -3.249980        -0.731385         2.004613
 H        -2.864677         0.993365         1.934808
 H        -5.007848         1.371960         1.145059
 H        -5.299138        -0.435277         0.975450
 H        -4.784222        -0.803164         3.273247
