19
Iteration:  2386charge 0 multiplicity 1
 C         1.033922         0.402755         0.641718
 C        -0.319423         0.281211         0.046990
 C        -1.486809         0.100812        -0.200163
 C        -2.924291        -0.128408        -0.108933
 O        -3.666669         1.057515        -0.436234
 C        -3.324143        -0.841203         1.390496
 C        -4.757198        -0.507446         1.799991
 C        -4.869735         0.896746         2.188900
 O        -4.132657         1.409670         3.006957
 H         1.394407         1.446535         0.385719
 H         0.816106         0.537086         1.664763
 H         1.757982        -0.372658         0.309680
 H        -3.222624        -0.762452        -0.939009
 H        -3.290318         1.817126         0.001625
 H        -3.185900        -1.919508         1.172168
 H        -2.557685        -0.581527         2.095178
 H        -5.413056        -0.753278         0.975969
 H        -5.230527        -1.175696         2.636770
 H        -5.496846         1.617373         1.614879
