19
Iteration:  1708
 C         1.205894         0.192627         0.585909
 C        -0.030487        -0.070945         0.019320
 C        -1.244759        -0.015562        -0.170747
 C        -2.718716        -0.054152        -0.118354
 O        -3.360300         1.043472        -0.915947
 C        -3.232549         0.118746         1.306173
 C        -4.706405         0.454906         1.289092
 C        -5.332585         0.835514         2.713230
 O        -4.931099         0.261024         3.742337
 H         2.083439        -0.426566         0.242130
 H         1.503921         1.165724         0.287600
 H         1.248113         0.233763         1.710433
 H        -3.115049        -0.968216        -0.680077
 H        -3.071758         1.029659        -1.859705
 H        -3.045596        -0.920056         1.681915
 H        -2.705921         0.986105         1.799845
 H        -4.745072         1.190721         0.460826
 H        -5.434397        -0.348955         1.072907
 H        -6.342782         1.392064         2.744825
