19
Iteration:   242
 C         1.535550        -0.250577        -0.069584
 C         0.078751         0.023411        -0.048012
 C        -1.128484         0.270560        -0.089153
 C        -2.648735         0.196788        -0.072923
 O        -3.327016         1.339918        -0.533700
 C        -3.057097        -0.090805         1.409048
 C        -4.669183        -0.016146         1.592198
 C        -4.981999         0.600907         2.850530
 O        -6.082914         0.635727         3.384824
 H         2.083584         0.197452         0.806853
 H         1.721116        -1.261576        -0.122885
 H         1.916808         0.223256        -1.006587
 H        -2.926728        -0.573666        -0.884746
 H        -2.745490         2.061862        -0.211455
 H        -2.859761        -0.999337         1.732292
 H        -2.705856         0.703683         2.072916
 H        -5.130946         0.750755         0.882088
 H        -5.279866        -0.894071         1.294301
 H        -4.104299         1.135427         3.131124
