19
Iteration:  2582charge 0 multiplicity 1
 C         1.246352         0.617490         0.062359
 C        -0.132248         0.080826        -0.027228
 C        -1.287650        -0.297176        -0.034555
 C        -2.812055        -0.273741         0.039041
 O        -3.173954         0.945282        -0.744541
 C        -3.374475        -0.388078         1.551613
 C        -4.901209        -0.252052         1.581105
 C        -5.341371         0.812540         2.583948
 O        -4.686233         1.319934         3.468266
 H         1.137648         1.735161         0.106831
 H         1.716443         0.200635         0.929403
 H         1.839503         0.389831        -0.861764
 H        -3.139553        -1.192267        -0.521476
 H        -2.309061         1.424269        -0.750593
 H        -3.213008        -1.428560         1.963955
 H        -2.971259         0.557993         1.943092
 H        -5.279127         0.000833         0.578706
 H        -5.527091        -1.106593         1.780017
 H        -6.253371         1.341513         2.353299
