19
Iteration:  2158
 C         1.391853         0.316884        -0.369539
 C        -0.010698         0.159389        -0.054419
 C        -1.150309        -0.187193         0.284515
 C        -2.611489        -0.114334         0.321599
 O        -3.049674         1.079814        -0.306448
 C        -3.413714        -0.391867         1.614829
 C        -4.952427        -0.335122         1.465507
 C        -5.553877         0.612751         2.399118
 O        -5.038906         1.479096         3.104072
 H         1.515631         0.668767        -1.435147
 H         1.814710         1.100991         0.249556
 H         1.979474        -0.602577        -0.236514
 H        -2.925733        -0.993254        -0.256361
 H        -2.804526         1.635075         0.471930
 H        -3.153783        -1.441034         1.847689
 H        -3.150104         0.360005         2.389353
 H        -5.193059         0.044289         0.451093
 H        -5.372255        -1.288974         1.523295
 H        -6.682455         0.629144         2.471673
