19
Iteration:  4568charge 0 multiplicity 1
 C         1.279148         0.420732         0.041603
 C        -0.180969         0.208327         0.171300
 C        -1.359110        -0.097596         0.365737
 C        -2.808594        -0.199426         0.451281
 O        -3.356400        -0.068257        -0.926656
 C        -3.355863         1.087485         1.238094
 C        -4.801848         1.096131         1.275788
 C        -5.274290         0.298709         2.510331
 O        -4.574445         0.139215         3.469696
 H         1.768032         0.030396         0.940276
 H         1.760018         0.059925        -0.944991
 H         1.482432         1.477081         0.082042
 H        -3.247732        -1.136325         0.776471
 H        -3.144773         0.831484        -1.183185
 H        -2.763654         1.073600         2.157864
 H        -2.949534         1.963281         0.709895
 H        -5.259473         2.085184         1.275687
 H        -5.433956         0.469939         0.520555
 H        -6.293720        -0.065107         2.505732
