19
Iteration:   974charge 0 multiplicity 1
 C         1.521320        -0.301688        -0.407493
 C         0.025181         0.105151        -0.129573
 C        -1.177322         0.014881         0.000809
 C        -2.657631         0.118459         0.133648
 O        -3.063338         1.380886        -0.590866
 C        -2.982451         0.210678         1.691641
 C        -4.489976         0.555716         1.692793
 C        -5.146367         0.378200         3.018535
 O        -6.355006         0.374585         3.123668
 H         2.104331        -0.798799         0.376387
 H         1.571262        -1.099729        -1.214443
 H         2.184504         0.511914        -0.707230
 H        -3.204802        -0.738319        -0.085397
 H        -2.455267         1.318790        -1.347888
 H        -2.728764        -0.793021         2.140630
 H        -2.551649         1.146867         2.084891
 H        -4.710905         1.547502         1.370486
 H        -5.014252        -0.328873         1.132872
 H        -4.662789        -0.065613         3.893299
