19
Iteration:  2187
 C         1.393249         0.287598        -0.320163
 C         0.009060         0.204412         0.122295
 C        -1.202749         0.027680         0.331649
 C        -2.635506        -0.075052         0.241172
 O        -3.176513         1.113249        -0.388191
 C        -3.457344        -0.657026         1.540545
 C        -4.960686        -0.406902         1.558022
 C        -5.524178         0.661649         2.486496
 O        -4.840101         1.538113         2.942580
 H         1.358232         0.698198        -1.377531
 H         1.901503         0.901959         0.395348
 H         1.797414        -0.757324        -0.164617
 H        -2.795035        -0.991359        -0.377736
 H        -2.885785         1.636741         0.413738
 H        -3.171455        -1.704103         1.717548
 H        -3.037616        -0.034865         2.366503
 H        -5.235673        -0.110661         0.506762
 H        -5.510582        -1.432199         1.599062
 H        -6.612045         0.654794         2.702598
