19
Iteration:  4784
 C         1.157014         0.364027         0.290360
 C        -0.267789        -0.031471         0.303927
 C        -1.502143        -0.035515         0.480617
 C        -2.918155         0.000356         0.205071
 O        -3.015765        -0.053073        -1.279124
 C        -3.620929         1.260162         0.777312
 C        -5.014056         0.935013         1.447463
 C        -5.021585         0.147314         2.725075
 O        -4.322824         0.333083         3.706141
 H         1.736089        -0.485355        -0.039540
 H         1.270291         1.193919        -0.403768
 H         1.535505         0.618122         1.263050
 H        -3.488295        -0.840396         0.467098
 H        -2.244233        -0.624502        -1.516017
 H        -3.183215         1.868645         1.552098
 H        -3.814508         1.879734        -0.092369
 H        -5.511184         1.879217         1.807729
 H        -5.738188         0.592273         0.739136
 H        -5.869888        -0.531511         2.811046
