19
Iteration:  4344
 C         1.158384         0.323012        -0.517922
 C        -0.146056         0.329569         0.203947
 C        -1.298734         0.307832         0.656576
 C        -2.675935        -0.070650         0.972035
 O        -3.580944        -0.487712        -0.133420
 C        -3.185594         1.353383         1.247393
 C        -4.671626         1.609711         1.476187
 C        -5.270332         0.274335         1.930143
 O        -4.677788        -0.416877         2.776390
 H         1.897037         0.336904         0.301975
 H         1.367252        -0.655981        -0.838781
 H         1.261317         1.120563        -1.317369
 H        -2.937086        -0.746571         1.738949
 H        -3.307348        -1.364284        -0.507222
 H        -2.670986         1.876536         2.052386
 H        -2.954948         1.914942         0.348910
 H        -4.876887         2.281154         2.335911
 H        -5.225315         2.013770         0.606449
 H        -6.335756        -0.146168         1.555005
