19
Iteration:  4724charge 0 multiplicity 1
 C         1.210659         0.148989         0.323616
 C        -0.218963         0.171758         0.442471
 C        -1.452070         0.199454         0.337231
 C        -2.890521         0.080200         0.128668
 O        -3.201274         0.023322        -1.202540
 C        -3.594182         1.093810         0.998059
 C        -5.057837         0.712849         1.302215
 C        -5.165116         0.323501         2.783852
 O        -4.202168         0.333422         3.499560
 H         1.797815        -0.786633         0.214639
 H         1.573087         0.634823        -0.585167
 H         1.732527         0.830228         1.060415
 H        -3.110196        -0.947518         0.566416
 H        -2.907600        -0.801816        -1.577334
 H        -3.010032         0.949348         1.955840
 H        -3.267519         2.138847         0.759850
 H        -5.757839         1.538072         1.198167
 H        -5.392808        -0.334400         0.941502
 H        -6.169322         0.030698         3.089386
