19
Iteration:  2334
 C         0.879295         0.353588         0.696466
 C        -0.437910         0.118635         0.217011
 C        -1.551055         0.044077        -0.309166
 C        -3.004305        -0.099207        -0.173692
 O        -3.642964         1.228746        -0.109494
 C        -3.094310        -0.775923         1.161324
 C        -4.432192        -0.638457         1.875590
 C        -4.963247         0.811924         2.169333
 O        -4.238100         1.595398         2.718593
 H         1.365461         1.167819         0.128676
 H         0.948883         0.463443         1.820647
 H         1.358043        -0.603602         0.458729
 H        -3.651445        -0.592810        -0.978509
 H        -3.074704         1.669584         0.532781
 H        -2.758845        -1.766369         0.752151
 H        -2.261977        -0.643639         1.900095
 H        -5.314981        -1.140401         1.365381
 H        -4.334939        -0.952065         2.909753
 H        -5.930238         1.230142         1.874243
