19
Iteration:  1525
 C         1.529773        -0.303493        -0.411465
 C         0.077022         0.012231         0.042274
 C        -1.044353         0.383203         0.182396
 C        -2.487342         0.196818         0.255403
 O        -3.170672         1.079078        -0.837318
 C        -3.124887         0.486539         1.621257
 C        -4.691807         0.318061         1.411465
 C        -5.638088         0.049839         2.637795
 O        -5.776758         0.652360         3.689734
 H         1.636111        -1.472485        -0.448777
 H         1.927196         0.261638        -1.240395
 H         2.093481        -0.053224         0.573693
 H        -2.628297        -0.878063        -0.207021
 H        -2.305401         1.335374        -1.267615
 H        -2.651627        -0.471646         2.192992
 H        -2.965633         1.553201         2.058242
 H        -5.044394         1.311136         0.984414
 H        -5.057512        -0.432301         0.735074
 H        -6.317653        -0.807865         2.302540
