19
Iteration:  3305
 C         1.299686        -0.059896         0.056839
 C        -0.133750        -0.116688        -0.037667
 C        -1.301524         0.148357        -0.121097
 C        -2.828701         0.137326        -0.037592
 O        -3.607530         1.291952        -0.448653
 C        -2.949780        -0.082500         1.543701
 C        -4.329881        -0.667893         1.997212
 C        -5.364988         0.445744         2.424155
 O        -5.111991         1.503963         2.970204
 H         1.897252        -0.893106         0.267474
 H         1.668911         0.620955        -0.753021
 H         1.493365         0.461170         1.002461
 H        -3.399714        -0.502815        -0.661966
 H        -3.650037         2.047733         0.156062
 H        -2.193441        -0.860221         1.878731
 H        -2.698894         0.885644         2.078214
 H        -4.783178        -1.253157         1.146085
 H        -4.154988        -1.327155         2.762752
 H        -6.378841         0.222519         2.028441
