19
Iteration:  4265
 C         1.307480         0.368113        -0.601696
 C        -0.137742         0.117728        -0.160221
 C        -1.139286         0.236335         0.551733
 C        -2.459881        -0.008761         1.080609
 O        -3.423428        -0.380539        -0.080240
 C        -3.144104         1.463162         1.386193
 C        -4.764339         1.437358         1.331657
 C        -5.417934         0.234752         2.009108
 O        -5.130657        -0.405233         3.037779
 H         1.735481         0.828240         0.309384
 H         1.962972        -0.484805        -0.897528
 H         1.437942         1.242995        -1.215440
 H        -2.689249        -0.663145         1.877081
 H        -3.006201        -0.863470        -0.823913
 H        -2.903183         2.045934         2.286158
 H        -2.912873         2.085237         0.488225
 H        -5.159895         2.402415         1.843892
 H        -5.213874         1.422050         0.388693
 H        -6.326615         0.048086         1.446956
