19
Iteration:  4927
 C         1.217432         0.266968         0.583407
 C        -0.124535         0.301487         0.003815
 C        -1.311832         0.186745         0.046813
 C        -2.750891         0.041790         0.318486
 O        -3.457160        -0.444152        -0.857629
 C        -3.560640         1.280322         0.861480
 C        -4.971945         1.075993         1.294412
 C        -5.181805         0.484133         2.748931
 O        -4.316615        -0.090039         3.417675
 H         2.144564        -0.037671         0.066999
 H         1.381354         1.314406         0.934643
 H         1.227910        -0.335908         1.436250
 H        -2.609303        -0.758769         1.080589
 H        -2.757294        -0.498191        -1.518438
 H        -3.063870         1.575664         1.801401
 H        -3.394713         2.134847         0.143396
 H        -5.473861         2.070683         1.144997
 H        -5.636822         0.489308         0.693688
 H        -6.216639         0.633007         3.131815
