19
Iteration:  1736
 C         1.183184         0.169751         0.758636
 C        -0.123567         0.037350         0.112568
 C        -1.301044         0.009602        -0.260799
 C        -2.840651        -0.113751        -0.181485
 O        -3.429938         0.923616        -1.002630
 C        -3.221336         0.129628         1.227150
 C        -4.634982         0.561800         1.309314
 C        -5.242224         0.724987         2.702483
 O        -4.810364         0.276571         3.737437
 H         1.917251        -0.468490         0.325940
 H         1.562090         1.257541         0.632010
 H         1.162578         0.084847         1.826900
 H        -3.231041        -1.014948        -0.608342
 H        -2.683627         1.419236        -1.438522
 H        -3.036039        -0.823518         1.684076
 H        -2.588665         0.872478         1.717209
 H        -4.534734         1.564084         0.818776
 H        -5.415527         0.095465         0.663974
 H        -6.146459         1.309353         2.777099
