19
Iteration:  3168
 C         1.092092         0.561915        -0.519270
 C        -0.250544         0.297334         0.001839
 C        -1.289428        -0.167385         0.438587
 C        -2.671537        -0.281481         0.396726
 O        -3.123597         1.066328         0.025074
 C        -3.364833        -0.715571         1.746342
 C        -4.861301        -0.561577         1.799234
 C        -5.340179         0.799271         2.023591
 O        -4.626788         1.602456         2.564108
 H         1.873173        -0.258745        -0.171929
 H         1.005447         0.591951        -1.616802
 H         1.367006         1.605153        -0.158841
 H        -3.058652        -0.811988        -0.411547
 H        -3.129540         1.659909         0.811282
 H        -3.061130        -1.782772         1.876070
 H        -2.842175        -0.159213         2.526655
 H        -5.224081        -0.759111         0.842959
 H        -5.217197        -1.229269         2.497971
 H        -6.464741         1.037744         1.903086
