19
Iteration:  3951
 C         1.264801         0.270283         0.481881
 C        -0.127744         0.334348         0.060129
 C        -1.343192         0.222452         0.068112
 C        -2.761620         0.118013         0.456739
 O        -3.433423        -0.795139        -0.687031
 C        -3.549416         1.459961         0.879262
 C        -4.962474         1.248717         1.388562
 C        -5.185468         0.429991         2.558671
 O        -4.311185        -0.116521         3.242191
 H         1.840521         1.243826         0.506026
 H         1.259358        -0.130619         1.489295
 H         1.860841        -0.469148        -0.145479
 H        -2.846340        -0.537567         1.386409
 H        -3.291573        -0.465858        -1.597797
 H        -2.953409         1.918229         1.692803
 H        -3.597665         2.265010         0.155947
 H        -5.375725         2.197137         1.809903
 H        -5.708399         1.016003         0.539037
 H        -6.276866         0.223579         2.727635
