19
Iteration:  4921charge 0 multiplicity 1
 C         1.227081         0.271780         0.606128
 C        -0.125555         0.250041         0.006546
 C        -1.359073         0.206248        -0.014172
 C        -2.700513         0.094662         0.346718
 O        -3.455564        -0.442457        -0.869982
 C        -3.497041         1.241533         0.904042
 C        -5.050512         1.069973         1.269231
 C        -5.186860         0.452761         2.747698
 O        -4.291598        -0.048534         3.413029
 H         2.152826        -0.036288         0.099203
 H         1.258947         1.354689         0.838259
 H         1.187541        -0.348814         1.580974
 H        -2.843271        -0.636997         1.183539
 H        -2.911357        -0.420187        -1.660948
 H        -2.927950         1.552341         1.797398
 H        -3.284555         2.075809         0.227746
 H        -5.557508         2.044324         1.277496
 H        -5.568249         0.352716         0.537926
 H        -6.229099         0.565082         3.198149
