19
Iteration:  1266
 C         1.378575        -0.157010         0.216880
 C         0.007098         0.113443        -0.053900
 C        -1.192326         0.178469        -0.146466
 C        -2.661559         0.262721        -0.190340
 O        -3.066729         1.504914        -0.533359
 C        -3.276163        -0.276494         1.215882
 C        -4.873908        -0.134444         1.438772
 C        -4.999795         0.210675         2.955691
 O        -5.662343         1.050293         3.514987
 H         1.443462        -1.116632         0.801874
 H         1.976337        -0.277239        -0.701991
 H         1.896964         0.566488         0.871745
 H        -3.075856        -0.388935        -1.011844
 H        -3.419985         1.606227        -1.445284
 H        -2.966023        -1.265776         1.030120
 H        -2.811086         0.201027         2.050304
 H        -5.336394         0.664371         0.795923
 H        -5.278980        -1.063213         1.158339
 H        -4.367497        -0.385828         3.688797
