19
Iteration:  1276charge 0 multiplicity 1
 C         1.401972        -0.172288         0.257058
 C         0.014054         0.159439         0.013695
 C        -1.231142         0.128100        -0.186752
 C        -2.723622         0.212018        -0.216224
 O        -3.101497         1.595707        -0.510499
 C        -3.282462        -0.339949         1.130112
 C        -4.775771        -0.136259         1.422078
 C        -4.968175         0.197904         3.023091
 O        -5.679644         1.085408         3.489467
 H         1.497609        -1.202733         0.727445
 H         1.875804        -0.200821        -0.709691
 H         1.871219         0.673274         0.802457
 H        -3.200107        -0.522229        -1.010287
 H        -3.405648         1.428649        -1.448148
 H        -3.016113        -1.268505         1.463764
 H        -2.696844         0.104666         1.942551
 H        -5.035363         0.787925         0.777308
 H        -5.430191        -1.003971         1.100231
 H        -4.203667        -0.486089         3.556680
