19
Iteration:   560charge 0 multiplicity 1
 C         1.378117        -0.425625         0.079533
 C        -0.042178        -0.280542        -0.072763
 C        -1.231292        -0.005183        -0.004882
 C        -2.674729         0.362410        -0.114345
 O        -2.976018         1.523741        -0.782112
 C        -3.224537         0.717364         1.327097
 C        -4.761030         0.636435         1.454501
 C        -5.031284         0.519538         3.014024
 O        -5.819603        -0.271719         3.518722
 H         1.669205         0.006202         1.075874
 H         1.542676        -1.528495         0.141359
 H         2.023071        -0.014708        -0.701411
 H        -3.212229        -0.689108        -0.427992
 H        -3.036041         1.380117        -1.752144
 H        -2.824347        -0.045199         2.144214
 H        -2.656415         1.654311         1.649239
 H        -5.117383         1.616350         1.241801
 H        -5.128184        -0.275102         1.120746
 H        -4.514192         1.308957         3.696533
