19
Iteration:  1261
 C         1.395473        -0.156966         0.198153
 C         0.008747         0.088790        -0.075746
 C        -1.223046         0.195766        -0.131031
 C        -2.627924         0.228630        -0.154527
 O        -3.073222         1.532795        -0.544477
 C        -3.281663        -0.241811         1.229242
 C        -4.866888        -0.114501         1.458101
 C        -5.024017         0.205945         2.918132
 O        -5.656578         1.035219         3.509550
 H         1.455711        -1.073755         0.794758
 H         2.054759        -0.327049        -0.660479
 H         1.866507         0.567046         0.880682
 H        -2.885510        -0.585823        -0.927879
 H        -3.399471         1.683491        -1.443799
 H        -3.062406        -1.345366         0.963663
 H        -2.709635         0.330101         2.022138
 H        -5.479510         0.636724         0.920677
 H        -5.362564        -1.209878         1.300056
 H        -4.390616        -0.439524         3.581809
