19
Iteration:  4822charge 0 multiplicity 1
 C         1.170496         0.288853         0.398567
 C        -0.252663         0.143588         0.348642
 C        -1.467436         0.066394         0.331691
 C        -2.999345        -0.006375         0.214754
 O        -3.191329        -0.237642        -1.255010
 C        -3.612078         1.202542         0.904262
 C        -5.019241         1.021325         1.385444
 C        -4.939483         0.161753         2.629019
 O        -4.278077         0.323200         3.627073
 H         1.906336        -0.340952        -0.134715
 H         1.353327         1.331266        -0.033326
 H         1.416918         0.429940         1.508720
 H        -3.333049        -0.888626         0.842550
 H        -2.358949         0.052927        -1.617856
 H        -2.867696         1.306574         1.675470
 H        -3.386613         2.025746         0.209499
 H        -5.206995         1.974879         1.853974
 H        -5.828083         0.569836         0.760201
 H        -5.735340        -0.663168         2.604125
