19
Iteration:  1562charge 0 multiplicity 1
 C         1.491895        -0.223211        -0.367957
 C         0.129921         0.077776         0.023457
 C        -1.115813         0.120856         0.276679
 C        -2.573312         0.162004         0.321136
 O        -3.079083         1.043145        -0.832125
 C        -3.223954         0.541713         1.610261
 C        -4.775636         0.363836         1.300524
 C        -5.630162         0.059225         2.548321
 O        -5.508009         0.619876         3.642193
 H         1.587410        -1.207741        -0.658363
 H         1.898164         0.357346        -1.230293
 H         2.182405        -0.126438         0.405184
 H        -3.030192        -0.871018         0.306035
 H        -3.073349         1.932016        -0.431633
 H        -3.010250         0.047267         2.536214
 H        -3.130347         1.575972         1.907888
 H        -5.238178         1.176458         0.786839
 H        -4.797761        -0.453369         0.604449
 H        -6.639482        -0.510177         2.447233
