19
Iteration:  2309
 C         0.962756         0.313962         0.659546
 C        -0.360011         0.152668         0.035174
 C        -1.517297         0.118902        -0.340811
 C        -2.945425         0.014340        -0.123711
 O        -3.611277         1.290123        -0.065127
 C        -3.167055        -0.917956         1.342015
 C        -4.573313        -0.722599         1.937347
 C        -4.886006         0.698648         2.159759
 O        -4.327219         1.672033         2.608192
 H         1.626890         1.039163         0.131765
 H         0.914021         0.396234         1.689639
 H         1.338491        -0.732144         0.548076
 H        -3.579529        -0.404344        -0.888366
 H        -3.252308         1.815808         0.697501
 H        -2.680946        -1.846677         1.128886
 H        -2.504154        -0.534298         2.099574
 H        -5.381024        -0.893483         1.236655
 H        -4.708900        -1.349515         2.917200
 H        -5.914273         1.017594         1.864499
