19
Iteration:   458charge 0 multiplicity 1
 C         1.460053        -0.405519        -0.413799
 C         0.019044        -0.161208        -0.146257
 C        -1.119266         0.082709         0.196003
 C        -2.570221         0.358029         0.269742
 O        -3.072583         1.185269        -0.752971
 C        -3.129724         0.554821         1.714782
 C        -4.630117         0.746408         1.462843
 C        -5.269139         0.664839         2.882925
 O        -6.003292        -0.183291         3.265689
 H         2.067961        -0.023992         0.411979
 H         1.561832        -1.448283        -0.364556
 H         1.873727        -0.009510        -1.352929
 H        -2.928040        -0.740005         0.173228
 H        -3.076378         2.056828        -0.302700
 H        -2.857945        -0.505500         2.166899
 H        -2.648350         1.393493         2.171861
 H        -4.802827         1.608635         0.819060
 H        -5.043188        -0.112146         0.968380
 H        -5.093623         1.401138         3.677765
