19
Iteration:  4539charge 0 multiplicity 1
 C         1.116482         0.506239        -0.166413
 C        -0.105603        -0.046166         0.422280
 C        -1.317672        -0.079086         0.431167
 C        -2.757744        -0.043796         0.464138
 O        -3.317304        -0.105831        -0.898866
 C        -3.289043         1.236688         1.223662
 C        -4.757147         1.048804         1.262616
 C        -5.319567         0.381439         2.498220
 O        -4.666558        -0.045624         3.454849
 H         1.964849         0.355191         0.528483
 H         1.390433         0.157950        -1.150355
 H         0.925226         1.589667        -0.429670
 H        -3.098866        -0.938980         1.068900
 H        -2.750019         0.286615        -1.565192
 H        -2.763034         1.235318         2.217257
 H        -2.813104         2.168743         0.821742
 H        -5.234909         2.056856         1.227600
 H        -5.221767         0.582632         0.407823
 H        -6.488434         0.564693         2.536708
