19
Iteration:  1514charge 0 multiplicity 1
 C         1.489626        -0.309478        -0.334618
 C         0.136786         0.029195        -0.051688
 C        -1.027077         0.386336         0.180942
 C        -2.517565         0.226651         0.173725
 O        -3.112688         1.123591        -0.803989
 C        -3.157221         0.399037         1.606971
 C        -4.711472         0.277532         1.463712
 C        -5.656463         0.092799         2.627405
 O        -5.815951         0.654479         3.700512
 H         1.681832        -1.456192        -0.468265
 H         1.913822         0.179039        -1.201249
 H         2.156731         0.026981         0.551795
 H        -2.697556        -0.926960        -0.016676
 H        -2.712388         1.140489        -1.711441
 H        -2.612224        -0.299384         2.433584
 H        -2.763718         1.452092         1.888251
 H        -4.853436         1.287114         0.997523
 H        -4.863661        -0.420048         0.667260
 H        -6.102323        -0.887505         2.708277
