19
Iteration:  2902charge 0 multiplicity 1
 C         1.291874         0.027241         0.093118
 C        -0.103756        -0.000780        -0.060067
 C        -1.330181         0.117602        -0.041450
 C        -2.763356        -0.022232         0.082534
 O        -3.455763         0.909461        -0.847509
 C        -3.236604         0.304671         1.468390
 C        -4.455719        -0.453249         1.912959
 C        -5.284369         0.347931         2.870536
 O        -5.074296         1.530155         3.044046
 H         1.669322         0.362748         1.088425
 H         1.788598        -0.911654        -0.198099
 H         1.708346         0.677365        -0.702480
 H        -2.999779        -1.107051        -0.189846
 H        -2.864378         0.858127        -1.640537
 H        -2.435577        -0.063088         2.149619
 H        -3.337977         1.364567         1.696910
 H        -5.209230        -0.625781         1.087456
 H        -4.178480        -1.489587         2.409188
 H        -6.092680        -0.165850         3.400029
