19
Iteration:  1676charge 0 multiplicity 1
 C         1.338480         0.159070         0.298259
 C        -0.047916         0.072061         0.122964
 C        -1.217684        -0.144881        -0.015109
 C        -2.667889        -0.032432        -0.124484
 O        -3.113079         1.146516        -0.932755
 C        -3.372445         0.196487         1.356200
 C        -4.857066         0.289553         1.247668
 C        -5.455457         0.747955         2.745274
 O        -5.021101         0.320635         3.816357
 H         1.934569        -0.713338        -0.186475
 H         1.698449         1.028203        -0.210775
 H         1.625502         0.109172         1.400325
 H        -3.115264        -1.039587        -0.539959
 H        -3.081325         0.999829        -1.906242
 H        -2.961141        -0.661225         1.990705
 H        -2.806658         1.096961         1.739260
 H        -5.178192         1.140989         0.596081
 H        -5.426459        -0.668316         0.957262
 H        -6.184258         1.524947         2.639089
