19
Iteration:  2039charge 0 multiplicity 1
 C         1.605419        -0.136337        -0.239095
 C         0.101829         0.072206        -0.048681
 C        -1.142163         0.074697         0.138602
 C        -2.600960         0.086513         0.171185
 O        -3.083532         1.025682        -0.777772
 C        -3.284645         0.232324         1.647516
 C        -4.836356        -0.196225         1.575186
 C        -5.703089         0.412149         2.570575
 O        -5.395778         1.121818         3.506859
 H         1.711860        -0.096810        -1.331426
 H         2.070719         0.826704         0.117594
 H         1.976671        -1.068844         0.208016
 H        -2.826221        -0.915678        -0.320611
 H        -2.736771         1.884364        -0.515927
 H        -2.553257        -0.439619         2.126571
 H        -3.278259         1.280401         1.982760
 H        -5.285125         0.304978         0.649397
 H        -5.265993        -1.258797         1.503568
 H        -6.834893         0.349025         2.313292
