19
Iteration:  1782
 C         1.134067         0.149314         0.774899
 C        -0.276111         0.141857         0.318723
 C        -1.420307        -0.039714        -0.073733
 C        -2.801791        -0.068072        -0.279101
 O        -3.220590         0.829370        -1.359085
 C        -3.397344         0.124120         1.170283
 C        -4.804349         0.739691         1.280620
 C        -5.200928         0.608869         2.827153
 O        -4.509003         0.253413         3.774862
 H         1.767681        -0.489404         0.188830
 H         1.657292         1.123066         0.879916
 H         1.204883        -0.152503         1.820191
 H        -3.065937        -1.010990        -0.755936
 H        -3.018998         1.767954        -1.146717
 H        -3.209753        -0.739363         1.810486
 H        -2.738704         0.932324         1.493550
 H        -4.754904         1.840431         1.274349
 H        -5.676227         0.476481         0.684936
 H        -6.281642         0.782725         3.031327
