19
Iteration:  4146
 C         1.350026         0.621408        -0.524991
 C         0.027563         0.195192        -0.068549
 C        -1.091499         0.079060         0.436747
 C        -2.478239        -0.081434         0.764135
 O        -3.343542        -0.512638        -0.370587
 C        -3.143036         1.154974         1.487607
 C        -4.695168         1.207271         1.348649
 C        -5.646706         0.540045         2.306864
 O        -5.328677        -0.163762         3.227030
 H         1.857070         1.445020         0.003327
 H         1.971380        -0.284933        -0.477426
 H         1.332760         0.911342        -1.589950
 H        -2.437172        -0.899257         1.483294
 H        -2.804291        -0.506342        -1.190016
 H        -2.688166         1.133004         2.495310
 H        -2.844254         2.108239         0.993236
 H        -4.978662         2.253165         1.283857
 H        -4.870638         0.852856         0.317287
 H        -6.676716         0.889313         2.165214
