19
Iteration:  4182charge 0 multiplicity 1
 C         1.303984         0.405427        -0.460227
 C        -0.107856         0.468585        -0.218935
 C        -1.202091         0.265229         0.329426
 C        -2.464976        -0.058393         0.892150
 O        -3.185951        -0.645986        -0.267589
 C        -3.188159         1.099137         1.633569
 C        -4.675884         1.283574         1.247565
 C        -5.628697         0.455948         2.184134
 O        -5.184672        -0.146271         3.133041
 H         1.949256         0.863942         0.319742
 H         1.548782        -0.640777        -0.498974
 H         1.528032         0.612114        -1.543062
 H        -2.559118        -0.982708         1.552927
 H        -3.380373         0.084463        -0.909005
 H        -3.151131         1.041453         2.739171
 H        -2.756110         2.043741         1.393709
 H        -4.944476         2.300390         1.602341
 H        -5.075449         1.214500         0.151226
 H        -6.670071         0.785459         2.234434
