19
Iteration:  1329charge 0 multiplicity 1
 C         1.285871         0.017180         0.306623
 C        -0.107225        -0.164580         0.012171
 C        -1.232940         0.086310        -0.317116
 C        -2.764373         0.152257        -0.272424
 O        -3.271786         1.536363        -0.390294
 C        -3.106797        -0.373481         1.282239
 C        -4.632804         0.083254         1.433624
 C        -4.877237         0.222702         2.884957
 O        -5.673718         1.039269         3.397193
 H         1.610066        -0.952291         0.800866
 H         1.872266         0.153265        -0.546254
 H         1.439544         0.822229         1.056686
 H        -3.270291        -0.557599        -0.966959
 H        -2.515806         2.003197        -0.856817
 H        -3.017751        -1.495519         1.452810
 H        -2.372823         0.226594         1.931309
 H        -4.630535         1.123562         0.932157
 H        -5.512379        -0.547920         0.924593
 H        -4.281386        -0.489219         3.376894
