19
Iteration:  3796
 C         1.186741         0.215983         0.385529
 C        -0.229431         0.313309         0.392239
 C        -1.379657        -0.036218         0.353432
 C        -2.860525        -0.135878         0.159122
 O        -3.261249        -0.156294        -1.183203
 C        -3.563091         1.135202         0.739998
 C        -5.019428         0.923210         1.307409
 C        -5.066899         0.384127         2.737875
 O        -4.252111         0.415190         3.670186
 H         1.663382         0.840653        -0.371776
 H         1.701026         0.508933         1.369849
 H         1.509082        -0.809204         0.205171
 H        -3.280930        -0.997922         0.757706
 H        -3.053006        -1.048322        -1.515154
 H        -3.013518         1.401236         1.600648
 H        -3.734159         1.993649         0.090328
 H        -5.658732         1.776566         1.533111
 H        -5.608396         0.249905         0.805443
 H        -6.100977         0.065037         2.998981
