19
Iteration:  3474charge 0 multiplicity 1
 C         1.342855         0.031468        -0.422609
 C         0.013025         0.178707        -0.049337
 C        -1.209712         0.088600         0.166124
 C        -2.651931        -0.038843         0.189470
 O        -3.131352         0.989775        -0.601245
 C        -3.175576        -0.053019         1.726498
 C        -4.733743        -0.266380         1.683551
 C        -5.550250         0.319388         2.751004
 O        -5.339461         1.465479         3.105856
 H         1.520528        -0.708287        -1.256017
 H         1.910797         0.913888        -0.623689
 H         1.883518        -0.450776         0.451755
 H        -3.055227        -1.046388        -0.215075
 H        -2.488850         1.721012        -0.553616
 H        -2.481443        -0.772642         2.275332
 H        -2.968819         0.980193         2.028321
 H        -5.041799         0.469312         0.832651
 H        -4.786917        -1.387904         1.490782
 H        -6.392392        -0.336826         3.132283
