19
Iteration:  3532
 C         1.427300         0.325497        -0.513964
 C         0.146017        -0.046017         0.045855
 C        -1.079755        -0.050863         0.191133
 C        -2.565878        -0.226751         0.229152
 O        -3.146578         0.725321        -0.676974
 C        -3.302594         0.086711         1.632139
 C        -4.871127        -0.004574         1.479321
 C        -5.673538         0.495833         2.694429
 O        -5.253675         1.327342         3.481179
 H         1.424443         0.042378        -1.549457
 H         1.534125         1.423618        -0.452560
 H         2.275572        -0.027311         0.024823
 H        -2.770289        -1.317197        -0.179563
 H        -2.737826         1.492340        -0.230598
 H        -3.001540        -0.672845         2.333187
 H        -2.878966         1.052138         1.911967
 H        -5.487870         0.625443         0.750427
 H        -5.148839        -1.108719         1.156537
 H        -6.774658         0.450082         2.457981
