19
Iteration:  3977charge 0 multiplicity 1
 C         1.300374         0.436871         0.349779
 C        -0.144536         0.235231         0.145689
 C        -1.328087         0.196010         0.145623
 C        -2.769739        -0.003104         0.438655
 O        -3.577552        -0.581023        -0.614529
 C        -3.350353         1.388235         0.777933
 C        -4.812139         1.247272         1.269435
 C        -5.206674         0.409660         2.601560
 O        -4.500265        -0.197307         3.367222
 H         1.589247         1.503214         0.370351
 H         1.533475        -0.025366         1.332862
 H         1.946045        -0.129159        -0.347351
 H        -2.833540        -0.536964         1.375756
 H        -3.178035        -0.921566        -1.418126
 H        -2.699412         1.729680         1.636806
 H        -3.383958         2.137828        -0.048755
 H        -5.278281         2.233815         1.487302
 H        -5.402535         0.962219         0.459510
 H        -6.310904         0.259004         2.542279
