19
Iteration:   529charge 0 multiplicity 1
 C         1.412477        -0.492533        -0.077235
 C        -0.029888        -0.152378        -0.067617
 C        -1.228132         0.170861        -0.019798
 C        -2.635482         0.391762         0.082083
 O        -3.038698         1.405322        -0.886615
 C        -3.137759         0.563419         1.544602
 C        -4.633216         0.633943         1.565523
 C        -5.189130         0.641144         2.996465
 O        -5.870665        -0.290627         3.386921
 H         1.915709        -0.138531         0.855584
 H         1.458382        -1.670499        -0.007112
 H         2.019902        -0.147068        -0.931934
 H        -3.266231        -0.482350        -0.120811
 H        -2.686984         1.073127        -1.732256
 H        -2.847229        -0.383508         2.084949
 H        -2.502434         1.484798         1.842329
 H        -4.793954         1.687285         1.170997
 H        -5.323439        -0.065433         0.999397
 H        -5.159469         1.472946         3.716322
