19
Iteration:  1653
 C         1.414348         0.108271         0.049230
 C        -0.030437         0.112446         0.245881
 C        -1.261441        -0.095021         0.149069
 C        -2.739770        -0.019798        -0.094378
 O        -2.959945         1.120365        -0.888014
 C        -3.433512         0.292287         1.306247
 C        -4.905490         0.280169         1.360467
 C        -5.497613         0.618860         2.654690
 O        -5.067639         0.357366         3.791789
 H         1.813501        -0.832277        -0.424528
 H         1.807291         0.906717        -0.544647
 H         1.922099         0.056505         1.049124
 H        -3.175556        -0.976076        -0.644649
 H        -2.475699         1.114337        -1.707039
 H        -2.934202        -0.458526         1.929790
 H        -2.940522         1.271330         1.603574
 H        -5.337949         0.923656         0.584419
 H        -5.441902        -0.731546         1.329720
 H        -6.351164         1.263564         2.501493
