19
Iteration:  4231charge 0 multiplicity 1
 C         1.333291         0.287853        -0.602592
 C         0.008640         0.470800         0.100236
 C        -1.167430         0.249279         0.274755
 C        -2.490796         0.060123         0.841625
 O        -3.438693        -0.623332        -0.113677
 C        -3.223733         1.364141         1.584732
 C        -4.714780         1.346651         1.319716
 C        -5.476518         0.347799         2.054800
 O        -5.161622        -0.279121         3.069399
 H         2.104249         0.617987         0.089193
 H         1.614314        -0.752735        -0.975029
 H         1.370066         0.797835        -1.544896
 H        -2.328871        -0.712583         1.598314
 H        -2.859418        -0.635740        -0.879321
 H        -3.020169         1.167287         2.650702
 H        -2.832980         2.404835         1.407595
 H        -5.249807         2.291330         1.737347
 H        -4.953946         1.271535         0.282492
 H        -6.476848         0.153738         1.653264
