19
Iteration:  1446
 C         1.436143        -0.095329        -0.138014
 C         0.032573        -0.136911         0.025699
 C        -1.180511         0.039864         0.110549
 C        -2.685147         0.187705         0.012401
 O        -3.053260         1.361524        -0.551984
 C        -3.251965         0.280750         1.404794
 C        -4.758834         0.199352         1.348542
 C        -5.251949        -0.026528         2.769786
 O        -5.678217         0.886877         3.501446
 H         1.975045        -1.080608        -0.007207
 H         1.607912         0.444338        -1.125479
 H         1.836800         0.542433         0.707317
 H        -3.143658        -0.723822        -0.576065
 H        -2.696241         1.335248        -1.477892
 H        -2.885103        -0.761673         1.822438
 H        -2.971143         1.191577         2.050857
 H        -5.260798         1.093580         0.964783
 H        -5.088714        -0.696209         0.785752
 H        -4.779129        -0.931743         3.445385
