19
Iteration:  1390
 C         1.360343         0.018783         0.133485
 C        -0.056145         0.027814        -0.015153
 C        -1.220080        -0.096226        -0.258983
 C        -2.725243         0.103995        -0.203477
 O        -2.855806         1.502844        -0.694493
 C        -3.247654        -0.119520         1.231041
 C        -4.793974         0.013656         1.517392
 C        -5.105296         0.134901         3.020020
 O        -5.762215         1.032472         3.557401
 H         1.673945        -0.994314         0.382337
 H         1.982925         0.293567        -0.787421
 H         1.657117         0.691214         0.951739
 H        -3.287293        -0.566603        -0.916313
 H        -2.684631         2.060681         0.111254
 H        -2.831434        -1.112649         1.546852
 H        -2.648995         0.463115         1.944150
 H        -5.252096         0.886455         1.049587
 H        -5.424612        -0.838643         1.305990
 H        -4.861343        -0.668702         3.679611
