19
Iteration:  2065charge 0 multiplicity 1
 C         1.492134         0.028859        -0.307692
 C         0.045513         0.076293        -0.131098
 C        -1.111895        -0.115493         0.203380
 C        -2.549563        -0.079744         0.159836
 O        -3.009679         1.106597        -0.584224
 C        -3.241379         0.065103         1.539464
 C        -4.749735        -0.176601         1.513730
 C        -5.695502         0.579007         2.488274
 O        -5.512374         1.198124         3.543319
 H         1.587176         0.103271        -1.376338
 H         1.865461         0.990636         0.127620
 H         1.917590        -0.854239         0.158380
 H        -2.967937        -0.962078        -0.425948
 H        -2.440676         1.832061        -0.284168
 H        -2.681504        -0.641636         2.137696
 H        -3.117915         1.092531         1.909586
 H        -5.259728        -0.359711         0.582708
 H        -5.097515        -1.049006         2.100856
 H        -6.738042         0.219058         2.315257
