19
Iteration:   189charge 0 multiplicity 1
 C         1.470763        -0.037495         0.084273
 C        -0.020043         0.015251        -0.077493
 C        -1.258657        -0.053151        -0.154998
 C        -2.804540         0.185726        -0.096680
 O        -3.050083         1.529174        -0.676460
 C        -3.164899        -0.218759         1.278515
 C        -4.603660        -0.135398         1.667024
 C        -4.931145         0.672433         2.916644
 O        -6.016158         0.657941         3.418990
 H         1.710168         0.418481         1.061999
 H         1.772805        -0.993393         0.055120
 H         1.960923         0.487126        -0.736481
 H        -3.331461        -0.375951        -0.850394
 H        -2.620468         2.053182         0.038806
 H        -2.788632        -1.218096         1.495426
 H        -2.591786         0.395017         2.123111
 H        -5.104600         0.505367         1.042974
 H        -5.242303        -1.049589         1.514830
 H        -3.996788         1.405645         3.133901
