19
Iteration:  3610
 C         1.408106         0.533511        -0.099506
 C         0.028129         0.145427        -0.105329
 C        -1.143130        -0.273180         0.104230
 C        -2.596567        -0.367841         0.172744
 O        -3.198649         0.372997        -0.923040
 C        -3.430611         0.294231         1.472933
 C        -4.860801         0.289202         1.393715
 C        -5.558751         0.927682         2.707265
 O        -5.036400         0.880862         3.787360
 H         1.833624         0.505806        -1.063243
 H         1.575337         1.496710         0.427428
 H         1.824894        -0.284947         0.411898
 H        -2.815118        -1.533447         0.097757
 H        -2.453147         0.534744        -1.536927
 H        -3.086547        -0.360517         2.200025
 H        -2.994476         1.234429         1.810648
 H        -5.461285         0.778525         0.550250
 H        -5.320799        -0.798758         1.235985
 H        -6.501713         1.518063         2.469445
