19
Iteration:  4352charge 0 multiplicity 1
 C         1.211890         0.309133        -0.440345
 C        -0.217870         0.340812         0.118506
 C        -1.319650         0.229253         0.616145
 C        -2.743950         0.020358         0.971049
 O        -3.536611        -0.504348        -0.129609
 C        -3.196183         1.418357         1.279053
 C        -4.665169         1.520330         1.462764
 C        -5.256159         0.267795         1.938108
 O        -4.691979        -0.414117         2.766799
 H         2.032651         0.482475         0.292632
 H         1.275853        -0.668137        -1.004407
 H         1.297355         1.061005        -1.235783
 H        -2.763099        -0.594757         1.903166
 H        -3.194498        -1.307209        -0.605104
 H        -2.566923         1.864378         2.078703
 H        -2.939174         1.980848         0.346146
 H        -4.807131         2.204526         2.406777
 H        -5.104427         1.987645         0.626613
 H        -6.333598         0.092411         1.834232
