19
Iteration:  1859
 C         1.149688         0.061755         0.664273
 C        -0.242249         0.007388         0.295118
 C        -1.428144        -0.126851         0.030277
 C        -2.923463         0.002580        -0.197331
 O        -3.142847         0.965386        -1.234579
 C        -3.407712         0.594824         1.093873
 C        -4.791377         0.365763         1.257069
 C        -5.243585         0.539099         2.782957
 O        -4.519969         0.326363         3.741095
 H         1.808552        -0.437201        -0.081109
 H         1.540643         1.090161         0.905356
 H         1.344221        -0.433934         1.648071
 H        -3.477252        -0.893666        -0.485386
 H        -2.297823         1.444538        -1.005541
 H        -2.705764         0.350865         1.923516
 H        -3.194061         1.706276         1.127516
 H        -5.526462         0.802611         0.511563
 H        -4.957108        -0.769462         1.308291
 H        -6.280364         0.873919         3.091840
