19
Iteration:  1623
 C         1.434493         0.036531        -0.188909
 C         0.032991        -0.078602         0.174565
 C        -1.211507         0.017656         0.299105
 C        -2.674503         0.187933         0.150722
 O        -2.912113         1.075847        -0.930067
 C        -3.457933         0.374528         1.441288
 C        -4.950608         0.220954         1.279545
 C        -5.642782         0.472973         2.649355
 O        -5.080094         0.422388         3.709668
 H         1.692968        -0.956649        -0.724216
 H         1.613131         0.927813        -0.803128
 H         1.936737         0.231456         0.820869
 H        -3.025317        -0.802943        -0.110930
 H        -2.091952         1.551774        -1.187663
 H        -2.826719        -0.263599         2.160169
 H        -3.155745         1.368490         1.870396
 H        -5.407970         0.881601         0.474897
 H        -5.469344        -0.795665         1.121628
 H        -6.751606         0.847352         2.424007
