19
Iteration:  2306
 C         0.959111         0.311889         0.640849
 C        -0.325109         0.162102         0.008816
 C        -1.513454         0.125940        -0.316995
 C        -2.965491        -0.001536        -0.109146
 O        -3.610967         1.300354        -0.057995
 C        -3.157904        -0.897437         1.351612
 C        -4.571355        -0.750105         1.927417
 C        -4.916881         0.708466         2.174355
 O        -4.322325         1.665362         2.597390
 H         1.649383         0.973081         0.143403
 H         0.941668         0.370153         1.734570
 H         1.358954        -0.727033         0.573705
 H        -3.511605        -0.437750        -0.936944
 H        -3.205450         1.760043         0.674925
 H        -2.734151        -1.869532         1.077867
 H        -2.520868        -0.513939         2.144189
 H        -5.408625        -0.851833         1.251798
 H        -4.784404        -1.256176         2.915726
 H        -5.952867         0.988650         1.813997
