19
Iteration:   423
 C         1.451554        -0.275756        -0.512256
 C         0.081110        -0.187036        -0.096001
 C        -1.113857         0.059029         0.188035
 C        -2.563549         0.189218         0.193849
 O        -2.886143         1.202112        -0.707245
 C        -3.150829         0.563292         1.563046
 C        -4.673152         0.714472         1.594407
 C        -5.361094         0.664940         2.988664
 O        -6.191509        -0.149315         3.333750
 H         2.092185         0.162203         0.173612
 H         1.795227        -1.356340        -0.615270
 H         1.631033         0.103575        -1.487827
 H        -3.102622        -0.764279        -0.260720
 H        -2.105963         1.782813        -0.713134
 H        -2.773153        -0.154701         2.379935
 H        -2.588478         1.440468         1.994414
 H        -4.819154         1.604335         0.886333
 H        -5.141586        -0.259047         1.131740
 H        -4.828348         1.588616         3.627756
