19
Iteration:  1905
 C         1.332964        -0.112860         0.555529
 C        -0.113902        -0.108155         0.164823
 C        -1.292211         0.116240        -0.103713
 C        -2.787856         0.117675        -0.175132
 O        -3.150138         0.982298        -1.396063
 C        -3.418130         0.680313         1.236200
 C        -4.828590         0.166121         1.486283
 C        -5.410031         0.447456         2.810214
 O        -4.852010         0.512498         3.903423
 H         1.997725        -0.488898        -0.299432
 H         1.675987         0.851515         0.839462
 H         1.678720        -0.648091         1.504532
 H        -3.332634        -0.802246        -0.333872
 H        -2.407653         1.632167        -1.428714
 H        -2.633863         0.240722         1.945128
 H        -3.010153         1.713545         1.182155
 H        -5.566178         0.359081         0.651587
 H        -4.621974        -0.944395         1.460677
 H        -6.537123         0.239304         2.837582
