19
Iteration:  4527
 C         1.238737         0.526556        -0.260852
 C        -0.017519        -0.039959         0.406541
 C        -1.274890        -0.185904         0.512623
 C        -2.773651         0.030377         0.461453
 O        -3.327796        -0.146621        -0.895350
 C        -3.305392         1.240851         1.225915
 C        -4.851464         1.178389         1.306988
 C        -5.302907         0.462400         2.541374
 O        -4.741517        -0.141023         3.420294
 H         2.176444         0.719436         0.283180
 H         1.437061         0.017431        -1.219310
 H         0.871227         1.560996        -0.353554
 H        -3.263576        -0.865495         0.939421
 H        -2.503196        -0.128901        -1.473008
 H        -3.049391         1.170592         2.305863
 H        -3.028833         2.174147         0.666431
 H        -5.453281         2.097846         1.287333
 H        -5.134112         0.583360         0.425500
 H        -6.492031         0.405517         2.598540
