19
Iteration:   109
 C         1.399405         0.111346         0.126849
 C        -0.054417        -0.141478        -0.153970
 C        -1.281861        -0.063356        -0.143641
 C        -2.728353         0.061451        -0.122973
 O        -2.967450         1.445112        -0.388062
 C        -3.161730        -0.222044         1.367123
 C        -4.718059         0.162814         1.438129
 C        -4.947824         0.798415         2.754739
 O        -5.878819         0.510677         3.461320
 H         1.600301         0.636984         1.030125
 H         2.062582        -0.792960         0.080006
 H         1.682588         0.801106        -0.657275
 H        -3.420614        -0.538795        -0.797011
 H        -3.782632         1.513195        -0.902635
 H        -3.021223        -1.266889         1.462850
 H        -2.224384        -0.073176         2.164543
 H        -4.958009         0.929819         0.717600
 H        -5.334590        -0.686260         1.326682
 H        -4.175121         1.457545         3.387510
