19
Iteration:  2312
 C         0.966130         0.301787         0.660620
 C        -0.400288         0.149995         0.071883
 C        -1.522683         0.106600        -0.366272
 C        -2.929793         0.032543        -0.125036
 O        -3.609604         1.279437        -0.070335
 C        -3.176289        -0.925289         1.318070
 C        -4.569063        -0.700738         1.950627
 C        -4.867460         0.703274         2.143732
 O        -4.319235         1.681631         2.628236
 H         1.573364         1.090176         0.159634
 H         0.855811         0.509072         1.803848
 H         1.385221        -0.694058         0.504917
 H        -3.636588        -0.462117        -0.880908
 H        -3.313421         1.856097         0.683047
 H        -2.682530        -1.931996         1.168403
 H        -2.423876        -0.485214         2.059524
 H        -5.366194        -1.061161         1.191480
 H        -4.613508        -1.379769         2.789358
 H        -5.917251         0.962930         1.897629
