19
Iteration:  3488
 C         1.433811         0.068576        -0.424333
 C        -0.028391         0.229574        -0.208325
 C        -1.168899        -0.035524         0.244048
 C        -2.589599        -0.001481         0.363291
 O        -3.079002         0.912358        -0.672232
 C        -3.273461         0.000853         1.682516
 C        -4.766122        -0.238224         1.600806
 C        -5.568271         0.356097         2.750995
 O        -5.324872         1.452678         3.201651
 H         1.561849        -0.515925        -1.321065
 H         1.871620         1.050015        -0.614676
 H         1.880736        -0.430897         0.403635
 H        -2.886506        -1.037196        -0.156798
 H        -2.657314         1.781627        -0.519790
 H        -2.936637        -0.910319         2.141803
 H        -3.026322         0.756343         2.424156
 H        -5.179542         0.197452         0.656300
 H        -5.190780        -1.295171         1.394224
 H        -6.452657        -0.211626         3.186590
