19
Iteration:   760charge 0 multiplicity 1
 C         1.355047        -0.501728         0.118110
 C        -0.021815        -0.003703         0.006975
 C        -1.240103         0.081187        -0.029379
 C        -2.618472         0.326405        -0.149546
 O        -2.957821         1.676393        -0.634488
 C        -3.340680         0.139654         1.240470
 C        -4.888645         0.334331         1.369780
 C        -5.223381         0.746071         2.808604
 O        -5.504301        -0.026657         3.715941
 H         1.665887        -0.534234         1.126919
 H         1.304456        -1.575766        -0.239427
 H         2.086802         0.039833        -0.466929
 H        -3.047397        -0.521279        -0.822467
 H        -2.289016         1.951792        -1.262250
 H        -3.040901        -0.855468         1.568495
 H        -2.846143         0.975596         1.793996
 H        -5.212668         1.093338         0.625313
 H        -5.322001        -0.589491         1.122906
 H        -5.186045         1.908354         3.058954
