19
Iteration:  1431
 C         1.429215        -0.015536        -0.073947
 C        -0.035350        -0.204485         0.066791
 C        -1.249668        -0.023005         0.099478
 C        -2.624782         0.159409        -0.013815
 O        -3.072598         1.493141        -0.662100
 C        -3.238088         0.093938         1.386624
 C        -4.802283         0.135071         1.414648
 C        -5.105132         0.056930         2.862763
 O        -5.698861         0.909942         3.472581
 H         1.931680        -0.959236        -0.022509
 H         1.643086         0.423979        -1.105951
 H         1.871736         0.625108         0.670275
 H        -3.111919        -0.645320        -0.668051
 H        -2.329627         1.750223        -1.216576
 H        -2.948643        -0.731902         1.948508
 H        -2.967974         1.083813         1.765472
 H        -5.205446         1.084357         1.007183
 H        -5.191443        -0.753811         0.754337
 H        -4.862251        -0.981142         3.175419
