19
Iteration:  3202charge 0 multiplicity 1
 C         1.246214         0.401726        -0.523970
 C         0.023931         0.042128         0.190642
 C        -1.222688         0.032945         0.314898
 C        -2.671370        -0.057791         0.360231
 O        -3.515590         1.053543        -0.102541
 C        -3.303028        -0.619205         1.710272
 C        -4.774917        -0.593510         1.779203
 C        -5.350062         0.752835         2.094552
 O        -4.753347         1.625180         2.705302
 H         2.229921        -0.226050        -0.636213
 H         1.037149         0.618970        -1.597110
 H         1.650786         1.369486        -0.120268
 H        -2.844122        -0.815080        -0.358325
 H        -3.299438         1.784487         0.549097
 H        -2.925789        -1.685697         1.769547
 H        -3.013156        -0.126620         2.651243
 H        -5.335510        -0.865824         0.948006
 H        -5.120375        -1.332591         2.407326
 H        -6.452727         0.697556         1.807969
