19
Iteration:  3556charge 0 multiplicity 1
 C         1.326977         0.388052        -0.442999
 C        -0.019487         0.046549         0.154309
 C        -1.168301        -0.265762         0.256210
 C        -2.629149        -0.128954         0.268664
 O        -3.184983         0.635602        -0.845913
 C        -3.198877         0.077428         1.661798
 C        -4.689167         0.117402         1.429964
 C        -5.572138         0.647168         2.556944
 O        -5.213992         1.165710         3.592005
 H         1.209255         0.184480        -1.468802
 H         1.506889         1.485839        -0.344378
 H         2.188529        -0.035265        -0.015843
 H        -3.097390        -1.187569         0.020904
 H        -2.641551         1.457826        -0.787114
 H        -2.672905        -0.662458         2.162898
 H        -2.901554         1.077140         2.000229
 H        -4.959891         0.524748         0.400125
 H        -5.194749        -0.917987         1.386992
 H        -6.658569         0.423720         2.278918
