19
Iteration:  4427
 C         1.411552         0.252009        -0.278735
 C         0.031336         0.307438         0.088515
 C        -1.173805         0.365944         0.121605
 C        -2.595429         0.074533         0.687366
 O        -3.533963        -0.393438        -0.234693
 C        -3.206563         1.330900         1.287198
 C        -4.829625         1.363789         1.383535
 C        -5.425891         0.450067         2.433988
 O        -4.986502        -0.526146         3.005603
 H         2.113687         0.371638         0.549387
 H         1.536837        -0.610658        -1.022872
 H         1.572773         1.151088        -0.853427
 H        -2.416835        -0.750994         1.456606
 H        -3.337834        -1.262183        -0.565830
 H        -2.913237         1.595127         2.321849
 H        -2.877922         2.128136         0.569609
 H        -5.182564         2.394262         1.552597
 H        -5.196413         1.006720         0.441194
 H        -6.518970         0.637369         2.714342
