19
Iteration:   972charge 0 multiplicity 1
 C         1.526063        -0.313699        -0.417763
 C        -0.003267         0.122194        -0.102370
 C        -1.179137         0.015229         0.010006
 C        -2.648322         0.113337         0.117335
 O        -3.065166         1.391670        -0.594714
 C        -2.990827         0.197939         1.673741
 C        -4.489892         0.559307         1.696975
 C        -5.139432         0.393296         3.013565
 O        -6.348922         0.363867         3.124110
 H         2.158170        -0.830559         0.370984
 H         1.542526        -1.055814        -1.176061
 H         2.232743         0.467023        -0.758720
 H        -3.151656        -0.859740        -0.088280
 H        -2.457036         1.332310        -1.308270
 H        -2.761648        -0.742827         2.214324
 H        -2.617123         1.176674         2.132963
 H        -4.653234         1.603238         1.337630
 H        -4.994056        -0.392682         1.146853
 H        -4.625231        -0.071893         3.931973
