19
Iteration:  4992
 C         1.229571         0.459879         0.082390
 C        -0.122399         0.168431         0.597649
 C        -1.365447         0.082678         0.467849
 C        -2.828834        -0.005451         0.462822
 O        -3.267880        -0.546587        -0.890732
 C        -3.557221         1.358588         0.760452
 C        -4.923711         1.278438         1.301163
 C        -5.146302         0.600027         2.708264
 O        -4.408349        -0.280096         3.165307
 H         1.194459         0.706982        -1.000879
 H         1.518476         1.315044         0.694855
 H         1.902637        -0.326644         0.270065
 H        -3.281455        -0.759818         1.112755
 H        -3.544781        -1.441939        -0.623178
 H        -2.987988         1.962577         1.471664
 H        -3.570864         1.979837        -0.156394
 H        -5.204945         2.311982         1.522429
 H        -5.594054         0.836279         0.570589
 H        -6.019511         1.009679         3.349781
