19
Iteration:   964
 C         1.502434        -0.334072        -0.430759
 C         0.048519         0.146568        -0.013437
 C        -1.226434         0.019409         0.040661
 C        -2.603890         0.095947         0.110168
 O        -3.070385         1.379395        -0.587993
 C        -3.051326         0.224261         1.593974
 C        -4.479190         0.543601         1.695234
 C        -5.125493         0.402815         3.038771
 O        -6.336730         0.334687         3.130988
 H         1.973236        -0.792731         0.420312
 H         1.270959        -1.090988        -1.287876
 H         2.130614         0.416021        -0.906579
 H        -2.912834        -0.811994        -0.377278
 H        -2.452227         1.529835        -1.297021
 H        -2.808265        -0.568546         2.348362
 H        -2.487695         0.981398         2.143848
 H        -4.585554         1.432472         1.143213
 H        -5.062660        -0.160502         1.064464
 H        -4.376897         0.218586         3.822205
