19
Iteration:   208
 C         1.455323        -0.099365         0.026461
 C        -0.012810        -0.024115        -0.024284
 C        -1.199270         0.050314        -0.115316
 C        -2.619247         0.217292        -0.168006
 O        -3.159457         1.462628        -0.610628
 C        -3.109457        -0.156573         1.303621
 C        -4.667561        -0.093191         1.589950
 C        -4.987465         0.622264         2.874584
 O        -6.026468         0.691428         3.468157
 H         1.852571         0.365755         0.947400
 H         1.796139        -1.134327        -0.031043
 H         1.871880         0.423716        -0.864070
 H        -3.168125        -0.522927        -0.863653
 H        -3.164979         2.135032         0.127070
 H        -2.712755        -1.089255         1.552568
 H        -2.407218         0.418994         1.971172
 H        -5.168124         0.453572         0.703118
 H        -5.088205        -1.101824         1.686904
 H        -4.189474         1.154933         3.376767
