19
Iteration:  3254
 C         1.362351         0.046884        -0.134766
 C        -0.144185         0.419329        -0.265638
 C        -1.292991         0.121067         0.000856
 C        -2.690651        -0.081669         0.264712
 O        -3.506437         1.102463        -0.167623
 C        -3.056741        -0.420050         1.714050
 C        -4.621088        -0.618663         1.854230
 C        -5.432115         0.623478         2.251466
 O        -4.983056         1.594409         2.857241
 H         1.267821        -1.076434         0.108018
 H         1.981005         0.127189        -1.013154
 H         1.997799         0.467551         0.695056
 H        -3.165101        -0.888217        -0.446807
 H        -2.937505         1.896163        -0.301904
 H        -2.546731        -1.324298         2.013173
 H        -2.711676         0.396793         2.359710
 H        -5.130725        -0.958458         0.891667
 H        -4.892730        -1.554107         2.548907
 H        -6.537630         0.480413         2.058676
