19
Iteration:  3922charge 0 multiplicity 1
 C         1.174660         0.099598         0.480505
 C        -0.213054         0.359516         0.274182
 C        -1.421287         0.464729         0.199283
 C        -2.780496         0.121565         0.461343
 O        -3.384554        -0.668672        -0.654115
 C        -3.602393         1.223547         0.745884
 C        -5.070354         1.244184         1.295648
 C        -5.081977         0.397350         2.605257
 O        -4.092571        -0.048468         3.120439
 H         1.828839         0.962697         0.245838
 H         1.431469        -0.153803         1.496876
 H         1.507665        -0.667497        -0.251010
 H        -2.806491        -0.627258         1.217207
 H        -3.596798        -0.181908        -1.466000
 H        -2.939402         1.766021         1.481580
 H        -3.505706         2.034022         0.018987
 H        -5.524826         2.216679         1.586260
 H        -5.717735         0.769309         0.593387
 H        -6.082359         0.119375         3.039998
