19
Iteration:  3491
 C         1.443316         0.086980        -0.432605
 C        -0.026005         0.221082        -0.228738
 C        -1.151076        -0.045497         0.271940
 C        -2.552010        -0.038328         0.339192
 O        -3.082208         0.912689        -0.685267
 C        -3.297075         0.002635         1.709855
 C        -4.805399        -0.227479         1.558227
 C        -5.556704         0.363395         2.758906
 O        -5.326604         1.452686         3.230458
 H         1.633403        -0.499090        -1.324709
 H         1.877380         1.117003        -0.614414
 H         1.890777        -0.459280         0.395077
 H        -2.920876        -0.999291        -0.100669
 H        -2.734099         1.814394        -0.543270
 H        -2.988776        -0.907859         2.201631
 H        -3.114768         0.762102         2.499096
 H        -5.149427         0.129387         0.624975
 H        -5.146657        -1.224761         1.457662
 H        -6.474550        -0.150116         3.132593
