19
Iteration:  1690charge 0 multiplicity 1
 C         1.405251         0.202589         0.440198
 C        -0.067763        -0.042029         0.043498
 C        -1.275198        -0.068560        -0.121203
 C        -2.762701        -0.018736        -0.141391
 O        -3.185840         1.097689        -0.915414
 C        -3.282757         0.137942         1.330658
 C        -4.849553         0.406315         1.407288
 C        -5.376490         0.744454         2.647713
 O        -4.992084         0.308072         3.748783
 H         2.049572        -0.641150         0.061790
 H         1.788546         1.240664         0.188702
 H         1.404241         0.264648         1.557272
 H        -3.177763        -0.940809        -0.609231
 H        -3.149042         0.757849        -1.836068
 H        -3.108040        -0.790608         1.947394
 H        -2.857156         0.979108         1.896401
 H        -5.118157         1.104168         0.554120
 H        -5.300477        -0.598482         1.059045
 H        -6.175354         1.533023         2.743351
