19
Iteration:  1389
 C         1.355894         0.015225         0.139102
 C        -0.053933         0.034762        -0.021076
 C        -1.220615        -0.099217        -0.264056
 C        -2.722263         0.101170        -0.202703
 O        -2.855184         1.507142        -0.691548
 C        -3.254232        -0.125972         1.234227
 C        -4.789956         0.015433         1.524272
 C        -5.102839         0.133693         3.020661
 O        -5.764279         1.036857         3.556892
 H         1.676323        -0.985584         0.395665
 H         1.992674         0.299382        -0.785810
 H         1.645154         0.687886         0.951589
 H        -3.271167        -0.594250        -0.932048
 H        -2.703911         2.063564         0.105730
 H        -2.857341        -1.110676         1.519564
 H        -2.641954         0.494369         1.902154
 H        -5.213912         0.889059         1.002527
 H        -5.444266        -0.857729         1.306545
 H        -4.836372        -0.710703         3.690494
