19
Iteration:  1304charge 0 multiplicity 1
 C         1.295426        -0.077242         0.280137
 C        -0.098831         0.004593         0.121621
 C        -1.275978         0.054570        -0.211145
 C        -2.744803         0.235371        -0.302403
 O        -3.206104         1.489585        -0.375910
 C        -3.167677        -0.287450         1.123737
 C        -4.616321         0.051901         1.457853
 C        -4.870423         0.187928         2.980151
 O        -5.652552         1.044631         3.341744
 H         1.602678        -1.028560         0.715685
 H         1.757217        -0.031447        -0.732468
 H         1.680329         0.756982         0.883610
 H        -3.147141        -0.477576        -0.984393
 H        -3.206021         1.711931        -1.331244
 H        -3.233187        -1.466169         1.209847
 H        -2.354246         0.118782         1.818165
 H        -4.978212         0.966656         0.999932
 H        -5.360146        -0.767974         1.212001
 H        -4.305349        -0.579000         3.537520
