19
Iteration:  3505
 C         1.453591         0.199512        -0.498364
 C         0.080778         0.102362        -0.252969
 C        -1.037635        -0.046585         0.338057
 C        -2.570925        -0.105160         0.284795
 O        -3.094452         0.853827        -0.700257
 C        -3.379155        -0.033937         1.750156
 C        -4.904994        -0.177707         1.489214
 C        -5.623572         0.460468         2.693001
 O        -5.298688         1.436252         3.377689
 H         1.790895        -0.305737        -1.460327
 H         1.890589         1.210761        -0.443492
 H         1.940264        -0.298419         0.422743
 H        -2.724283        -1.033174        -0.176079
 H        -2.845814         1.701906        -0.279425
 H        -2.959523        -0.806850         2.496082
 H        -3.138509         1.008591         2.067796
 H        -5.276765         0.320274         0.569685
 H        -5.186612        -1.232644         1.429959
 H        -6.426191        -0.217947         3.062057
