19
Iteration:  4153
 C         1.354257         0.577883        -0.511535
 C         0.005477         0.266966        -0.169695
 C        -1.039179         0.086940         0.421252
 C        -2.484838        -0.110028         0.801929
 O        -3.311752        -0.540328        -0.338532
 C        -3.169728         1.153237         1.506781
 C        -4.734129         1.275062         1.388355
 C        -5.596143         0.553656         2.266993
 O        -5.323062        -0.164829         3.205470
 H         1.894135         1.316144         0.090578
 H         1.966163        -0.377462        -0.330557
 H         1.382421         0.891183        -1.545854
 H        -2.566776        -1.013411         1.432566
 H        -2.859510        -0.305050        -1.148751
 H        -2.888955         1.017577         2.569336
 H        -2.844437         2.144180         1.074854
 H        -5.076222         2.316032         1.125810
 H        -5.114579         0.736437         0.502830
 H        -6.776903         0.594162         2.099446
