19
Iteration:  3290
 C         1.369398        -0.006915         0.077394
 C        -0.167046         0.025709        -0.152123
 C        -1.373268         0.187185        -0.207198
 C        -2.796558         0.083293         0.120903
 O        -3.538015         1.227730        -0.379175
 C        -3.008568        -0.186157         1.581569
 C        -4.425161        -0.637685         1.952176
 C        -5.334982         0.497838         2.329260
 O        -5.101114         1.510359         2.959890
 H         1.582166        -1.181868         0.068522
 H         1.933571         0.338565        -0.876314
 H         1.692304         0.518641         1.029672
 H        -3.081978        -0.845292        -0.407573
 H        -3.237338         1.928965         0.251819
 H        -2.202672        -0.880327         1.963940
 H        -2.892439         0.745565         2.154350
 H        -4.918862        -1.127767         1.154763
 H        -4.419933        -1.317836         2.887221
 H        -6.414205         0.248346         2.212180
