19
Iteration:  3862
 C         1.227209         0.118818         0.361443
 C        -0.222984         0.095342         0.466279
 C        -1.425058         0.231586         0.465272
 C        -2.956996         0.177795         0.440235
 O        -3.356142        -0.320630        -0.847356
 C        -3.791262         1.456269         0.651630
 C        -5.088828         0.874662         1.235355
 C        -4.951278         0.343551         2.623618
 O        -3.963555         0.121107         3.253714
 H         1.457256         1.035564        -0.195693
 H         1.724371         0.103326         1.387325
 H         1.588773        -0.780204        -0.156185
 H        -3.242657        -0.614638         1.223857
 H        -2.495812        -0.465098        -1.285988
 H        -3.220353         2.142691         1.240983
 H        -3.929203         1.673663        -0.419131
 H        -5.895495         1.620545         1.339126
 H        -5.378149         0.190776         0.477012
 H        -5.959402         0.412932         3.138171
