19
Iteration:   312
 C         1.573431        -0.187727        -0.277132
 C         0.100085        -0.052631        -0.186141
 C        -1.096184        -0.017914        -0.085851
 C        -2.551744         0.137968         0.023784
 O        -3.123254         1.392511        -0.489225
 C        -3.025219         0.144101         1.523012
 C        -4.622459         0.258699         1.632055
 C        -5.222842         0.661384         2.932040
 O        -6.329390         0.364058         3.401207
 H         2.060369         0.310493         0.514681
 H         1.868386        -1.270063        -0.289523
 H         1.878848         0.274903        -1.186219
 H        -3.157472        -0.579723        -0.601867
 H        -2.613258         1.741333        -1.234976
 H        -2.709167        -0.882981         1.945435
 H        -2.528490         1.071585         1.976722
 H        -4.807865         0.897385         0.802386
 H        -5.176121        -0.655526         1.297836
 H        -4.481645         1.414537         3.626569
