19
Iteration:   563
 C         1.395005        -0.420623         0.098577
 C        -0.047160        -0.277695        -0.063722
 C        -1.224130        -0.047106        -0.012969
 C        -2.708815         0.356717        -0.090199
 O        -2.988550         1.558794        -0.788950
 C        -3.226616         0.707671         1.296243
 C        -4.761838         0.635151         1.460664
 C        -5.014906         0.519507         3.022986
 O        -5.816687        -0.272023         3.524917
 H         1.674113         0.005340         1.065318
 H         1.603686        -1.607620         0.147405
 H         2.024201        -0.005626        -0.705765
 H        -3.142272        -0.613239        -0.469449
 H        -2.996249         1.336259        -1.753349
 H        -2.763488         0.008689         2.026736
 H        -2.732230         1.730542         1.686902
 H        -5.173007         1.650807         1.230351
 H        -5.131721        -0.353956         1.006373
 H        -4.446037         1.315570         3.625305
