19
Iteration:  1201charge 0 multiplicity 1
 C         1.458201        -0.144887        -0.023881
 C        -0.049198        -0.054695         0.102022
 C        -1.286499         0.047023        -0.206884
 C        -2.733040         0.220468        -0.079575
 O        -3.156529         1.448549        -0.558097
 C        -3.091753         0.127198         1.497506
 C        -4.580685         0.064084         1.478176
 C        -5.167034         0.049291         2.816652
 O        -5.781181         0.909987         3.404822
 H         1.864022        -1.010267         0.576247
 H         1.674020        -0.291099        -1.110850
 H         1.984920         0.788094         0.258539
 H        -3.212740        -0.674105        -0.521015
 H        -2.393667         1.965010        -0.785814
 H        -2.668436        -0.665634         2.178202
 H        -2.687647         1.052405         2.047309
 H        -4.999070         0.920096         0.795500
 H        -4.998303        -0.786621         0.948810
 H        -5.193111        -0.959708         3.234855
