19
Iteration:  1826charge 0 multiplicity 1
 C         1.154925         0.150917         0.753571
 C        -0.167836        -0.072418         0.357389
 C        -1.326184        -0.142469        -0.033350
 C        -2.844198         0.080907        -0.202581
 O        -3.167379         0.890459        -1.397124
 C        -3.553783         0.397939         1.223018
 C        -5.054425         0.561604         1.305867
 C        -5.228328         0.558709         2.842045
 O        -4.333217         0.260559         3.658024
 H         1.882178        -0.281244         0.050515
 H         1.358706         1.257194         0.780212
 H         1.375789        -0.192237         1.800357
 H        -3.355088        -0.854956        -0.305877
 H        -2.538777         1.652489        -1.279839
 H        -3.139706        -0.447849         1.763323
 H        -3.189760         1.393455         1.505161
 H        -5.321565         1.517989         0.774937
 H        -5.640261        -0.246745         0.790147
 H        -6.167245         1.089900         3.154095
