19
Iteration:  1103charge 0 multiplicity 1
 C         1.547219        -0.175547        -0.457119
 C         0.093093        -0.015028         0.054479
 C        -1.086581         0.033075         0.219264
 C        -2.570148         0.150150         0.044830
 O        -2.964526         1.357762        -0.761631
 C        -3.249006         0.155819         1.554524
 C        -4.744687         0.427690         1.456457
 C        -5.244261         0.120493         2.928718
 O        -6.162714         0.647184         3.534562
 H         2.127665        -0.881507         0.186900
 H         1.440249        -0.563805        -1.455359
 H         2.056315         0.789303        -0.536788
 H        -2.899171        -0.717026        -0.406101
 H        -2.153434         1.736563        -1.100912
 H        -2.830308        -0.800612         1.887628
 H        -2.703037         0.910830         2.167958
 H        -4.986683         1.527512         1.296893
 H        -5.330689         0.032179         0.660785
 H        -4.673677        -0.708085         3.504729
