19
Iteration:  3810
 C         1.265823         0.180552         0.377991
 C        -0.264078         0.289405         0.389788
 C        -1.464982         0.032922         0.357866
 C        -2.895930        -0.070204         0.306346
 O        -3.177753        -0.227227        -1.227989
 C        -3.684650         1.235129         0.866355
 C        -5.072026         0.889191         1.317171
 C        -5.123043         0.351772         2.758911
 O        -4.129706         0.404059         3.522021
 H         1.660089         0.894080        -0.375355
 H         1.613113         0.393855         1.358652
 H         1.521159        -0.883622         0.118772
 H        -3.227216        -1.013080         0.708406
 H        -3.040245        -1.153969        -1.507672
 H        -3.137719         1.651997         1.708737
 H        -3.414711         1.757459        -0.033252
 H        -5.367788         1.956325         1.374759
 H        -5.743034         0.469604         0.501200
 H        -6.054805        -0.088710         3.122018
