19
Iteration:  4619charge 0 multiplicity 1
 C         1.322250         0.254773         0.358562
 C        -0.143615         0.141076         0.184484
 C        -1.366940         0.359589        -0.060030
 C        -2.756921        -0.037778         0.237770
 O        -3.451860        -0.227332        -1.077864
 C        -3.359330         1.152186         1.130916
 C        -4.812215         0.959167         1.318462
 C        -5.218008         0.292053         2.687271
 O        -4.652842         0.161219         3.758125
 H         1.826708        -0.434178         1.067396
 H         1.718435         0.055311        -0.643999
 H         1.602034         1.277515         0.703980
 H        -2.818983        -1.117461         0.569139
 H        -2.869880         0.144144        -1.735208
 H        -2.579462         1.151241         1.885651
 H        -3.133979         1.868072         0.332949
 H        -5.330698         1.930131         1.532663
 H        -5.415422         0.460028         0.625613
 H        -6.308397        -0.024286         2.667835
