19
Iteration:  4937
 C         1.256789         0.300822         0.562244
 C        -0.090388         0.362389         0.028474
 C        -1.315378         0.208453         0.139184
 C        -2.821739        -0.036355         0.291460
 O        -3.449975        -0.458135        -0.856732
 C        -3.538660         1.302873         0.808473
 C        -4.925478         1.077560         1.378123
 C        -5.129086         0.548462         2.717887
 O        -4.393602        -0.134009         3.393011
 H         1.839298        -0.005939        -0.327111
 H         1.718713         1.156280         1.035094
 H         1.216380        -0.464198         1.320918
 H        -2.953923        -0.885635         1.046191
 H        -2.765274        -0.772609        -1.435496
 H        -2.951609         1.749929         1.635987
 H        -3.702197         2.029599        -0.010986
 H        -5.445345         2.059534         1.436803
 H        -5.528532         0.449210         0.733832
 H        -6.151386         0.680546         3.041119
