19
Iteration:  3007
 C         1.297072         0.290144         0.018831
 C        -0.112988         0.122284        -0.031823
 C        -1.351892         0.093921        -0.023654
 C        -2.788547        -0.168168         0.154829
 O        -3.694352         0.813474        -0.519530
 C        -3.081069        -0.334640         1.636092
 C        -4.530829        -0.541029         1.844369
 C        -5.272699         0.805287         2.237059
 O        -4.814149         1.597165         3.053821
 H         1.703002         0.142851         1.010147
 H         1.922695        -0.358181        -0.643070
 H         1.532016         1.350624        -0.139098
 H        -3.019804        -1.047066        -0.475080
 H        -3.459299         1.735426        -0.221108
 H        -2.517476        -1.185031         2.059920
 H        -2.830457         0.591572         2.210443
 H        -5.134779        -1.145519         1.021947
 H        -4.696506        -1.031847         2.884534
 H        -6.283868         0.943061         1.873419
