19
Iteration:  4621
 C         1.307063         0.242959         0.376821
 C        -0.162856         0.145462         0.186634
 C        -1.365238         0.374238        -0.061082
 C        -2.744019        -0.023585         0.221750
 O        -3.452026        -0.231508        -1.073575
 C        -3.336629         1.156414         1.104600
 C        -4.804943         0.958387         1.310927
 C        -5.201419         0.295599         2.700233
 O        -4.663112         0.151542         3.775873
 H         1.876734        -0.427770         1.026924
 H         1.735649         0.044913        -0.670108
 H         1.534107         1.226807         0.699771
 H        -2.835934        -1.058123         0.534412
 H        -2.867169         0.106808        -1.744983
 H        -2.613258         1.160525         1.898691
 H        -3.209960         1.895047         0.324869
 H        -5.319146         1.910858         1.495713
 H        -5.421611         0.355119         0.600031
 H        -6.341995        -0.022283         2.700075
