19
Iteration:  2245charge 0 multiplicity 1
 C         1.336290         0.268938         0.141150
 C        -0.161969         0.152862         0.212668
 C        -1.403420         0.149800         0.003582
 C        -2.911537         0.002392         0.127596
 O        -3.536631         1.168099        -0.217345
 C        -3.272058        -0.696566         1.454046
 C        -4.771535        -0.660388         1.635641
 C        -5.247383         0.741954         2.345889
 O        -4.444561         1.567045         2.720834
 H         1.789177         0.792888        -0.788270
 H         1.795287         0.696776         1.045700
 H         1.636561        -0.809335         0.026997
 H        -3.152814        -0.815829        -0.633666
 H        -3.486996         1.764700         0.537371
 H        -2.813016        -1.715537         1.502517
 H        -2.847779        -0.155208         2.369830
 H        -5.444630        -0.544848         0.731578
 H        -5.275185        -1.511960         2.093767
 H        -6.316896         0.823019         2.173837
