19
Iteration:  3196
 C         1.252859         0.455267        -0.546910
 C        -0.015378         0.067029         0.199582
 C        -1.222623        -0.017456         0.338189
 C        -2.677652        -0.097639         0.423630
 O        -3.437513         1.060890        -0.085069
 C        -3.322341        -0.649940         1.681687
 C        -4.823026        -0.629263         1.772199
 C        -5.311210         0.770181         2.063262
 O        -4.730829         1.646547         2.696598
 H         2.074888        -0.178775        -0.625524
 H         0.922888         0.559062        -1.591663
 H         1.605908         1.413422        -0.208367
 H        -3.047652        -0.777094        -0.466068
 H        -3.636293         1.771533         0.557721
 H        -2.809221        -1.591774         1.801919
 H        -2.945220         0.001835         2.506074
 H        -5.399799        -0.906344         0.769967
 H        -5.222089        -1.421647         2.573410
 H        -6.409688         0.818932         1.895370
