19
Iteration:  1522
 C         1.528254        -0.310177        -0.408822
 C         0.094103         0.013046         0.028372
 C        -1.049037         0.392070         0.181762
 C        -2.497055         0.185330         0.241542
 O        -3.159358         1.096005        -0.835234
 C        -3.122527         0.471543         1.639159
 C        -4.696401         0.301595         1.424962
 C        -5.637005         0.074060         2.614793
 O        -5.793187         0.650927         3.705166
 H         1.652046        -1.439316        -0.371031
 H         1.962523         0.282729        -1.255027
 H         2.024790        -0.073375         0.586716
 H        -2.567672        -0.836866        -0.160120
 H        -2.381493         1.308911        -1.429047
 H        -2.658165        -0.395930         2.128424
 H        -2.932758         1.520087         1.962560
 H        -4.933881         1.320759         1.009151
 H        -5.089437        -0.494446         0.659499
 H        -6.308658        -0.905269         2.480826
