19
Iteration:  4074
 C         1.109633         0.701000        -0.309962
 C        -0.182452         0.284129         0.089634
 C        -1.225011        -0.154285         0.605065
 C        -2.660792        -0.280174         0.638273
 O        -3.087751        -0.390157        -0.683034
 C        -3.260201         1.062122         1.288594
 C        -4.680604         1.349619         1.259490
 C        -5.416772         0.582051         2.427316
 O        -4.967902        -0.137848         3.291067
 H         1.256431         1.761166         0.009901
 H         1.882202         0.073195         0.138053
 H         1.266700         0.634110        -1.420219
 H        -2.919710        -1.244581         1.152259
 H        -3.526231        -1.237732        -0.687981
 H        -2.988004         1.164436         2.353213
 H        -2.763761         1.883619         0.774632
 H        -4.810482         2.459208         1.428748
 H        -5.239324         1.182911         0.307543
 H        -6.467430         0.920747         2.416510
