19
Iteration:  2839
 C         1.347018         0.096646        -0.160412
 C        -0.103251        -0.148605        -0.065786
 C        -1.318615        -0.167503         0.111583
 C        -2.728518        -0.067058         0.016095
 O        -2.925264         0.917367        -1.118061
 C        -3.327466         0.557380         1.353349
 C        -4.505812        -0.246949         1.902019
 C        -5.349644         0.256608         3.162772
 O        -5.547109         1.458026         3.416893
 H         1.695172         0.810204         0.598611
 H         1.893275        -0.791735        -0.087001
 H         1.386943         0.761197        -0.989307
 H        -3.258568        -0.993425        -0.163835
 H        -2.460196         0.585474        -1.936759
 H        -2.530418         0.470771         2.108755
 H        -3.625034         1.568485         1.106535
 H        -5.144004        -0.147429         0.965376
 H        -4.292089        -1.325056         2.007729
 H        -5.291181        -0.534673         3.943065
