19
Iteration:  1893
 C         1.311489        -0.053795         0.606684
 C        -0.174747        -0.053350         0.241606
 C        -1.341827        -0.075491        -0.146458
 C        -2.807054         0.197099        -0.183075
 O        -3.143334         0.965720        -1.373741
 C        -3.340457         0.696920         1.198403
 C        -4.758196         0.167757         1.414572
 C        -5.466980         0.464253         2.879229
 O        -4.742428         0.462861         3.852480
 H         1.922908        -0.459183        -0.265450
 H         1.594606         0.975123         0.697034
 H         1.443055        -0.745922         1.488642
 H        -3.179249        -0.798854        -0.386507
 H        -2.414271         1.605390        -1.518586
 H        -2.812702         0.216211         2.084116
 H        -3.553686         1.765579         1.423614
 H        -5.390643         0.566491         0.552292
 H        -4.880634        -0.963303         1.402738
 H        -6.618824         0.606065         2.897561
