19
Iteration:  4161charge 0 multiplicity 1
 C         1.401323         0.495657        -0.513240
 C        -0.034515         0.380309        -0.245382
 C        -1.065332         0.094761         0.402256
 C        -2.513030        -0.141127         0.826440
 O        -3.253438        -0.566420        -0.303279
 C        -3.215431         1.140195         1.529597
 C        -4.733720         1.342725         1.356210
 C        -5.633243         0.557550         2.291770
 O        -5.283104        -0.185041         3.197128
 H         1.687722         1.254822         0.241340
 H         1.984672        -0.400232        -0.392924
 H         1.636822         0.838096        -1.547018
 H        -2.683541        -0.976335         1.577232
 H        -2.926515        -0.036261        -1.030235
 H        -3.136642         1.118496         2.620012
 H        -2.577562         1.955955         1.261732
 H        -5.181509         2.347736         1.159274
 H        -5.106332         0.671427         0.455038
 H        -6.596601         0.490399         1.771043
