19
Iteration:  3272
 C         1.255355        -0.045918        -0.020791
 C        -0.056633         0.295090        -0.216092
 C        -1.266471         0.157168        -0.207054
 C        -2.769328         0.006812         0.168466
 O        -3.487246         1.122503        -0.250355
 C        -3.034902        -0.270589         1.722740
 C        -4.528676        -0.564405         1.890041
 C        -5.490622         0.528881         2.339533
 O        -5.008566         1.508565         2.893656
 H         1.449363        -1.046039         0.155903
 H         1.929179         0.280814        -0.823992
 H         1.534604         0.591908         0.800936
 H        -3.216782        -0.812012        -0.392613
 H        -2.981409         1.943410        -0.067957
 H        -2.405708        -1.147644         1.948438
 H        -2.615630         0.587351         2.293684
 H        -4.868442        -1.248885         1.072078
 H        -4.645871        -1.202742         2.728839
 H        -6.565516         0.466412         2.029352
