19
Iteration:  4348
 C         1.200190         0.323747        -0.481891
 C        -0.183959         0.335978         0.158626
 C        -1.323542         0.276083         0.643087
 C        -2.715875        -0.021331         0.970755
 O        -3.555966        -0.502614        -0.133229
 C        -3.190623         1.379601         1.269590
 C        -4.660007         1.565794         1.474878
 C        -5.260842         0.276630         1.920732
 O        -4.684615        -0.416484         2.773237
 H         1.953645         0.384310         0.305160
 H         1.316662        -0.707490        -0.937570
 H         1.257915         1.061148        -1.268671
 H        -2.881575        -0.682160         1.874421
 H        -3.302779        -1.302217        -0.588258
 H        -2.643311         1.910101         2.052355
 H        -2.963073         1.935548         0.352387
 H        -4.812138         2.174527         2.331774
 H        -5.164701         2.023740         0.575256
 H        -6.298081        -0.047280         1.776286
