19
Iteration:  1643
 C         1.405619         0.067227        -0.027281
 C        -0.037458         0.052563         0.229692
 C        -1.219257        -0.036727         0.216099
 C        -2.678898        -0.024268        -0.073575
 O        -2.935510         1.159088        -0.932865
 C        -3.405472         0.307577         1.372165
 C        -4.927845         0.240921         1.367521
 C        -5.591711         0.644217         2.696624
 O        -5.065779         0.361623         3.729481
 H         1.566503        -0.891157        -0.622874
 H         1.570161         0.950214        -0.609657
 H         1.984820         0.243626         0.936261
 H        -3.014845        -1.075553        -0.340422
 H        -2.186625         1.220064        -1.521260
 H        -3.106094        -0.390609         2.219453
 H        -3.026538         1.336928         1.717305
 H        -5.496638         0.822452         0.604016
 H        -5.119675        -0.882885         1.068776
 H        -6.689406         1.066971         2.615379
