19
Iteration:   630charge 0 multiplicity 1
 C         1.194978        -0.477049         0.332772
 C        -0.143746        -0.165624         0.042933
 C        -1.340840         0.095433        -0.144656
 C        -2.711939         0.423703        -0.290417
 O        -2.933978         1.687209        -1.072303
 C        -3.186639         0.427058         1.291689
 C        -4.659892         0.386370         1.597487
 C        -4.985758         0.586948         3.072895
 O        -5.695167        -0.219559         3.624641
 H         1.458288        -0.211728         1.363050
 H         1.233228        -1.661531         0.306512
 H         1.980160        -0.070102        -0.360545
 H        -3.540624        -0.146406        -0.627622
 H        -2.068763         1.804379        -1.527418
 H        -2.640593        -0.287979         1.827841
 H        -2.626376         1.403518         1.548663
 H        -4.942786         1.296802         1.066525
 H        -5.160772        -0.559128         1.205403
 H        -4.646017         1.372683         3.694786
