19
Iteration:  3001charge 0 multiplicity 1
 C         1.294780         0.255752         0.071630
 C        -0.137424         0.104780        -0.018922
 C        -1.338171         0.167866        -0.095154
 C        -2.822539        -0.127297         0.160011
 O        -3.678160         0.765715        -0.538193
 C        -3.038056        -0.307739         1.618013
 C        -4.514999        -0.520719         1.842286
 C        -5.260264         0.811353         2.238301
 O        -4.847718         1.583910         3.081657
 H         1.957421         0.145371         1.005973
 H         1.723391        -0.441624        -0.692868
 H         1.615151         1.294812        -0.231823
 H        -3.053086        -1.143166        -0.234288
 H        -3.720802         1.622035        -0.075152
 H        -2.603344        -1.257284         1.960987
 H        -2.627151         0.543345         2.153317
 H        -4.927324        -1.007877         1.053886
 H        -4.755294        -0.990948         2.754357
 H        -6.406918         0.815129         1.974868
