19
Iteration:   623charge 0 multiplicity 1
 C         1.189865        -0.474422         0.300114
 C        -0.217865        -0.185627         0.061704
 C        -1.344034         0.133762        -0.125124
 C        -2.748540         0.374104        -0.319317
 O        -2.887600         1.670829        -1.037887
 C        -3.143847         0.480156         1.324064
 C        -4.659748         0.416734         1.616637
 C        -4.967505         0.547555         3.056871
 O        -5.710161        -0.217516         3.613445
 H         1.543078        -0.165996         1.317809
 H         1.318961        -1.488611         0.296958
 H         1.896611        -0.007307        -0.406731
 H        -3.372859        -0.366901        -0.889817
 H        -2.023816         1.645740        -1.538102
 H        -2.501375        -0.301568         1.792435
 H        -2.773169         1.413011         1.610978
 H        -5.113872         1.252838         1.005373
 H        -5.130094        -0.448318         1.052561
 H        -4.606662         1.451410         3.741213
