19
Iteration:  2606
 C         1.250066         0.455491         0.137281
 C        -0.124859         0.081819        -0.096658
 C        -1.294673        -0.239301        -0.056787
 C        -2.757634        -0.177789        -0.007777
 O        -3.214094         0.877369        -0.783827
 C        -3.260449        -0.146945         1.428294
 C        -4.823804        -0.274485         1.680396
 C        -5.408527         0.792127         2.579051
 O        -4.810480         1.264763         3.525566
 H         1.409838         1.581317         0.268789
 H         1.724187        -0.161243         0.919869
 H         1.783428         0.195209        -0.837118
 H        -3.137296        -1.089373        -0.519430
 H        -2.754542         1.684582        -0.558092
 H        -2.878412        -1.004904         2.004188
 H        -2.944428         0.845828         1.636341
 H        -5.429573        -0.437008         0.827982
 H        -4.928085        -1.186872         2.201900
 H        -6.412584         1.171788         2.393110
