19
Iteration:  3463
 C         1.390575        -0.018745        -0.388438
 C        -0.011589         0.126846         0.055096
 C        -1.244090         0.118564         0.118224
 C        -2.625244        -0.111369         0.149837
 O        -3.252482         1.097508        -0.574823
 C        -3.118461        -0.012447         1.685892
 C        -4.607367        -0.312690         1.682101
 C        -5.496815         0.308258         2.778976
 O        -5.381790         1.481576         3.073250
 H         1.341405        -0.696942        -1.289205
 H         1.757135         0.928235        -0.727262
 H         2.053649        -0.434503         0.426413
 H        -2.935382        -1.026990        -0.489277
 H        -2.503571         1.721022        -0.618883
 H        -2.620941        -0.669540         2.473831
 H        -2.984992         1.021192         2.038179
 H        -4.994050         0.112493         0.675102
 H        -5.039073        -1.363428         1.529040
 H        -6.387037        -0.251050         3.202199
