19
Iteration:  3078charge 0 multiplicity 1
 C         1.099589         0.723342        -0.277195
 C        -0.206774         0.086678         0.047997
 C        -1.336958        -0.402238         0.144984
 C        -2.825001        -0.265164         0.256868
 O        -3.221030         1.067082         0.045744
 C        -3.229591        -0.747303         1.630328
 C        -4.706778        -0.591616         1.860997
 C        -5.238312         0.840834         2.149591
 O        -4.721170         1.826854         2.648080
 H         1.999964         0.533240         0.510729
 H         1.562158         0.452650        -1.273709
 H         1.002417         1.870845        -0.182106
 H        -3.284523        -1.023233        -0.420790
 H        -3.621763         1.280508        -0.834967
 H        -3.125628        -1.852793         1.742662
 H        -2.627932        -0.238624         2.407599
 H        -5.235627        -0.868096         0.984557
 H        -5.015209        -1.306520         2.559338
 H        -6.243542         0.903273         1.820120
