19
Iteration:  3629charge 0 multiplicity 1
 C         1.503897         0.528021         0.005574
 C         0.056692         0.008578        -0.009222
 C        -1.163488        -0.079602         0.099643
 C        -2.643332        -0.269754         0.141449
 O        -3.325754         0.236466        -1.066828
 C        -3.323587         0.239432         1.434429
 C        -5.000201         0.380961         1.426223
 C        -5.490855         0.956294         2.726780
 O        -4.963261         0.798480         3.803944
 H         1.804192         0.819164        -1.033703
 H         1.381937         1.525361         0.548591
 H         2.319407        -0.019504         0.530336
 H        -2.973185        -1.258804         0.102624
 H        -2.774270         0.010560        -1.839029
 H        -2.980406        -0.305506         2.350964
 H        -2.891641         1.261426         1.512627
 H        -5.375594         1.009050         0.565719
 H        -5.642016        -0.468463         1.173237
 H        -6.516267         1.431458         2.580178
