19
Iteration:   846charge 0 multiplicity 1
 C         1.318826        -0.261233        -0.169165
 C        -0.078104        -0.151232        -0.041958
 C        -1.266010        -0.235664        -0.074038
 C        -2.569334         0.278208         0.072973
 O        -2.832393         1.598986        -0.492094
 C        -3.154988         0.318232         1.473165
 C        -4.754553         0.326661         1.456134
 C        -5.255312         0.785300         2.770027
 O        -5.843566         0.004435         3.482898
 H         1.808938        -0.219561         0.747360
 H         1.711453        -1.141943        -0.780841
 H         1.675131         0.561101        -0.760447
 H        -3.207923        -0.401457        -0.410439
 H        -2.377344         1.914919        -1.306095
 H        -2.818170        -0.606612         2.027833
 H        -2.606719         0.918462         2.157555
 H        -5.003621         1.128037         0.600135
 H        -4.981173        -0.723378         1.321027
 H        -5.297816         1.936423         2.893072
