19
Iteration:  4753charge 0 multiplicity 1
 C         1.184850         0.257334         0.255843
 C        -0.212958         0.172900         0.521656
 C        -1.433516        -0.087703         0.462875
 C        -2.857746        -0.092161         0.239935
 O        -3.181264         0.120156        -1.251250
 C        -3.574400         1.212953         0.778927
 C        -5.057739         0.821875         1.336154
 C        -5.075912         0.226674         2.752635
 O        -4.269139         0.327247         3.672269
 H         1.648903        -0.704793         0.022918
 H         1.399526         0.936748        -0.702207
 H         1.889334         0.653324         0.931917
 H        -3.317935        -1.097359         0.364438
 H        -2.845726        -0.554321        -1.851027
 H        -3.170620         1.976497         1.393641
 H        -3.661948         1.716295        -0.174934
 H        -5.725054         1.685452         1.544993
 H        -5.504061         0.039636         0.799868
 H        -6.154424        -0.232973         2.945573
