19
Iteration:  1613
 C         1.447717         0.002121        -0.220519
 C         0.007627        -0.093389         0.111483
 C        -1.162920         0.044589         0.348037
 C        -2.641495         0.168674         0.157709
 O        -2.933014         1.061034        -0.915743
 C        -3.475141         0.464563         1.498128
 C        -4.950636         0.207235         1.323901
 C        -5.621962         0.439442         2.568477
 O        -5.116531         0.450746         3.695430
 H         1.941448        -0.908017        -0.726389
 H         1.608330         0.857461        -0.904710
 H         2.153163         0.133669         0.664070
 H        -2.990151        -0.809997        -0.135613
 H        -2.172804         1.708631        -0.884788
 H        -3.327344        -0.393294         2.244273
 H        -3.466191         1.445520         1.978288
 H        -5.437748         0.983708         0.644870
 H        -5.017041        -0.746301         0.786277
 H        -6.737641         0.488213         2.598262
