19
Iteration:  1752
 C         1.105784         0.174237         0.753477
 C        -0.224078         0.154042         0.231808
 C        -1.327605        -0.082958        -0.235272
 C        -2.720957        -0.089374        -0.280666
 O        -3.401970         0.898285        -1.153598
 C        -3.224846         0.048941         1.296935
 C        -4.670015         0.729317         1.338736
 C        -5.267277         0.717806         2.749949
 O        -4.686293         0.256033         3.725107
 H         1.818505        -0.580383         0.290284
 H         1.634889         1.080173         0.698664
 H         1.055540        -0.173364         1.824591
 H        -3.009520        -1.120115        -0.675915
 H        -2.788250         1.656324        -1.324948
 H        -3.198428        -0.946010         1.858277
 H        -2.525117         0.846183         1.602448
 H        -4.872557         1.705860         0.900643
 H        -5.360993         0.036979         0.893957
 H        -6.393562         0.937905         2.693732
