19
Iteration:  2555
 C         1.126103         0.676239        -0.052251
 C        -0.154803         0.105097         0.112502
 C        -1.309049        -0.293622         0.181236
 C        -2.771037        -0.352953         0.040813
 O        -3.264348         0.857706        -0.492193
 C        -3.392669        -0.523552         1.377980
 C        -4.851001        -0.054644         1.381757
 C        -5.286914         0.825960         2.542699
 O        -4.552789         1.340225         3.389116
 H         1.107080         1.785922        -0.022886
 H         1.732798         0.599112         0.927717
 H         1.684114         0.520490        -0.954898
 H        -2.977895        -1.259174        -0.541453
 H        -2.462951         1.364843        -0.704948
 H        -3.536029        -1.595960         1.541893
 H        -2.715987         0.015948         2.113824
 H        -5.033582         0.440006         0.353330
 H        -5.681032        -0.928587         1.431480
 H        -6.361262         1.062625         2.672352
