19
Iteration:  2064charge 0 multiplicity 1
 C         1.493526         0.022677        -0.305934
 C         0.045673         0.076575        -0.128651
 C        -1.102184        -0.107593         0.202647
 C        -2.543965        -0.079280         0.158321
 O        -3.013598         1.106147        -0.591518
 C        -3.243810         0.066454         1.537098
 C        -4.744999        -0.173734         1.513202
 C        -5.703890         0.576669         2.491090
 O        -5.508809         1.195974         3.545357
 H         1.601781         0.089364        -1.368125
 H         1.872723         1.011309         0.128207
 H         1.882859        -0.867762         0.151691
 H        -3.020363        -0.951257        -0.394489
 H        -2.441172         1.843267        -0.283146
 H        -2.706794        -0.647724         2.156532
 H        -3.129037         1.097874         1.893625
 H        -5.260649        -0.354962         0.565953
 H        -5.083010        -1.079999         2.113847
 H        -6.772239         0.220277         2.342580
