19
Iteration:  4400charge 0 multiplicity 1
 C         1.426818         0.313876        -0.291205
 C        -0.048622         0.094478        -0.149661
 C        -1.195601         0.277574         0.252854
 C        -2.644710         0.169482         0.871617
 O        -3.586614        -0.404888        -0.072941
 C        -3.189784         1.502466         1.252514
 C        -4.744764         1.338244         1.427990
 C        -5.411124         0.384179         2.275479
 O        -4.908302        -0.546006         2.878839
 H         1.718006         0.509323         0.743915
 H         1.971649        -0.410384        -0.826159
 H         1.533163         1.320721        -0.816472
 H        -2.678204        -0.452165         1.746881
 H        -3.186311        -1.068220        -0.623598
 H        -2.889000         1.909870         2.209850
 H        -2.968263         2.252520         0.513164
 H        -5.195434         2.259579         1.853930
 H        -5.227435         1.164347         0.400948
 H        -6.473485         0.439074         2.405207
