19
Iteration:   824
 C         1.467324        -0.217658        -0.129528
 C        -0.094982        -0.386482         0.022820
 C        -1.319697        -0.130979         0.005576
 C        -2.733232         0.269844        -0.043675
 O        -2.849354         1.680949        -0.450921
 C        -3.254020         0.299461         1.391190
 C        -4.733978         0.299774         1.366782
 C        -5.261089         0.737211         2.711854
 O        -5.715766         0.019728         3.587656
 H         1.972225        -0.131368         0.781198
 H         2.003483        -1.068785        -0.681882
 H         1.761070         0.599311        -0.748300
 H        -3.283142        -0.261099        -0.734291
 H        -2.426639         1.766911        -1.325263
 H        -2.665324        -0.392015         2.093025
 H        -2.810834         1.152645         1.855239
 H        -4.923536         1.223982         0.623967
 H        -5.255255        -0.643422         1.266885
 H        -5.200575         1.829412         2.974009
