19
Iteration:   984charge 0 multiplicity 1
 C         1.477170        -0.263250        -0.389180
 C         0.071091         0.009464        -0.208443
 C        -1.124662         0.005206        -0.044440
 C        -2.630579         0.180996         0.194198
 O        -3.054019         1.324356        -0.562787
 C        -2.981833         0.280666         1.665270
 C        -4.482898         0.518925         1.726284
 C        -5.186245         0.297567         3.032662
 O        -6.397241         0.421704         3.128914
 H         1.821798        -0.669884         0.575982
 H         1.606265        -0.957614        -1.227153
 H         2.006801         0.663274        -0.618385
 H        -3.194892        -0.603976        -0.285609
 H        -2.539311         1.361209        -1.407332
 H        -2.690184        -0.716168         2.075351
 H        -2.237978         0.948770         2.155624
 H        -4.760688         1.494872         1.322330
 H        -5.071851        -0.094749         0.917743
 H        -4.473131         0.041911         3.892158
