19
Iteration:  2558charge 0 multiplicity 1
 C         1.144676         0.683419        -0.040067
 C        -0.154159         0.100718         0.096465
 C        -1.325314        -0.295703         0.162002
 C        -2.758692        -0.352667         0.031862
 O        -3.250147         0.868314        -0.521731
 C        -3.357537        -0.500783         1.397973
 C        -4.846672        -0.078308         1.424508
 C        -5.321024         0.854763         2.545145
 O        -4.567879         1.322865         3.390591
 H         0.973785         1.738344        -0.018865
 H         1.663080         0.450635         0.892456
 H         1.706410         0.457793        -0.923015
 H        -2.995568        -1.286780        -0.558011
 H        -2.423617         1.381645        -0.729312
 H        -3.460474        -1.599845         1.414168
 H        -2.815563         0.087469         2.213231
 H        -5.079457         0.364501         0.392598
 H        -5.661011        -0.840660         1.489691
 H        -6.384272         1.014725         2.693871
