19
Iteration:   121charge 0 multiplicity 1
 C         1.359779         0.128985         0.136795
 C        -0.046843        -0.132225        -0.166205
 C        -1.245877        -0.188193        -0.230629
 C        -2.675415         0.084690        -0.074204
 O        -3.013840         1.507021        -0.352268
 C        -3.167988        -0.258836         1.294565
 C        -4.643569         0.141910         1.459963
 C        -4.924695         0.771913         2.806371
 O        -5.934114         0.544181         3.472458
 H         1.406219         0.582700         1.130919
 H         1.948653        -0.743731         0.152538
 H         1.828050         0.800774        -0.588189
 H        -3.160277        -0.577687        -0.787270
 H        -3.723914         1.504055        -1.046275
 H        -3.047088        -1.271464         1.470009
 H        -2.648164         0.488450         2.032556
 H        -4.949287         0.786200         0.695222
 H        -5.302166        -0.718292         1.417233
 H        -4.075383         1.508548         3.062564
