19
Iteration:  4849charge 0 multiplicity 1
 C         1.209478         0.307848         0.480441
 C        -0.202586         0.336036         0.448105
 C        -1.344116        -0.030693         0.271634
 C        -2.893759        -0.049455         0.199219
 O        -3.528206        -0.203990        -1.095095
 C        -3.457585         1.195871         0.874268
 C        -4.950086         0.951688         1.335192
 C        -5.032919         0.161330         2.598404
 O        -4.249005         0.310244         3.529268
 H         1.559966        -0.528052        -0.158442
 H         1.679364         1.195499         0.105625
 H         1.606825         0.034314         1.444226
 H        -3.173932        -0.900507         0.840604
 H        -3.281513         0.542920        -1.629899
 H        -2.631402         1.719885         1.405748
 H        -3.541521         1.776640        -0.058683
 H        -5.339292         1.979166         1.550165
 H        -5.572686         0.423593         0.637343
 H        -5.800546        -0.708551         2.607030
