19
Iteration:  4193charge 0 multiplicity 1
 C         1.223039         0.304773        -0.489692
 C        -0.077459         0.479651        -0.097810
 C        -1.213808         0.415704         0.352039
 C        -2.471636        -0.041861         0.819031
 O        -3.245896        -0.671530        -0.215761
 C        -3.197571         1.095155         1.583882
 C        -4.681084         1.218916         1.336145
 C        -5.555223         0.512036         2.136340
 O        -5.142773        -0.155524         3.083443
 H         1.891545         0.896197         0.182225
 H         1.482278        -0.730033        -0.458515
 H         1.422617         0.885969        -1.449154
 H        -2.166972        -0.859411         1.580700
 H        -3.363563        -0.030657        -0.968419
 H        -3.113904         0.866293         2.672405
 H        -2.628471         1.965255         1.363435
 H        -5.018478         2.226085         1.656752
 H        -4.988504         1.227035         0.211527
 H        -6.620834         0.655233         1.831842
