19
Iteration:   218charge 0 multiplicity 1
 C         1.414646        -0.130211        -0.002089
 C         0.045218        -0.049857         0.001597
 C        -1.141981         0.149622        -0.160165
 C        -2.600564         0.179076        -0.095027
 O        -3.214571         1.436618        -0.585922
 C        -3.086037        -0.150940         1.280683
 C        -4.642444        -0.062158         1.545039
 C        -4.969107         0.670318         2.894854
 O        -6.075151         0.672307         3.476976
 H         1.873079         0.347475         0.890854
 H         1.768939        -1.222798        -0.068198
 H         1.779904         0.411792        -0.916716
 H        -2.833141        -0.568834        -0.948730
 H        -3.081717         1.991095         0.238537
 H        -2.785501        -1.126557         1.608587
 H        -2.856877         0.646536         1.951314
 H        -5.355204         0.367559         0.696213
 H        -5.111986        -1.030234         1.642144
 H        -4.037328         0.940846         3.243624
