19
Iteration:  1664
 C         1.424869         0.123107         0.173960
 C        -0.067463         0.120536         0.190596
 C        -1.282383        -0.152314         0.068742
 C        -2.708558         0.019790        -0.049867
 O        -3.032786         1.139581        -0.890247
 C        -3.328345         0.193929         1.213741
 C        -4.921463         0.275498         1.310443
 C        -5.430055         0.708176         2.725300
 O        -5.073836         0.345140         3.807734
 H         1.688592        -0.810212        -0.395911
 H         1.798163         0.986206        -0.335115
 H         1.913508         0.203223         1.185319
 H        -3.156281        -0.960646        -0.572540
 H        -2.703583         0.793494        -1.756667
 H        -3.039392        -0.501598         2.017682
 H        -3.099087         1.243215         1.559312
 H        -5.300368         1.010383         0.581630
 H        -5.314116        -0.706785         0.914216
 H        -6.321369         1.270646         2.717956
