19
Iteration:  3131
 C         1.099118         0.777485        -0.420244
 C        -0.157867         0.135706        -0.139232
 C        -1.243676        -0.296009         0.201831
 C        -2.746672        -0.343790         0.499553
 O        -3.180059         1.107955         0.249873
 C        -3.391737        -0.917282         1.782546
 C        -4.902791        -0.599363         1.795489
 C        -5.299108         0.854044         2.078811
 O        -4.597547         1.781296         2.443234
 H         1.997284         0.429455         0.063535
 H         1.316794         0.797429        -1.517002
 H         0.998227         1.842595        -0.155135
 H        -3.100924        -0.962098        -0.328512
 H        -2.390327         1.550320        -0.145818
 H        -3.338608        -1.971242         1.955422
 H        -2.899642        -0.379879         2.589629
 H        -5.279957        -0.778333         0.742262
 H        -5.677157        -1.246448         2.290128
 H        -6.457848         0.945881         2.006886
