19
Iteration:   376charge 0 multiplicity 1
 C         1.424042        -0.147549        -0.487998
 C         0.016017        -0.129043        -0.118660
 C        -1.173501        -0.170609         0.245729
 C        -2.587450         0.208366         0.114361
 O        -2.733797         1.374877        -0.666860
 C        -3.121892         0.467070         1.572211
 C        -4.655706         0.471336         1.592005
 C        -5.265947         0.623273         2.958397
 O        -6.292298         0.065010         3.376188
 H         2.060128         0.434508         0.206424
 H         1.873721        -1.152674        -0.618315
 H         1.532944         0.277751        -1.486650
 H        -3.088010        -0.771100        -0.173047
 H        -2.637329         0.958773        -1.572446
 H        -2.725968        -0.318497         2.123777
 H        -2.467504         1.277205         2.038995
 H        -5.104844         1.349246         0.938944
 H        -5.128376        -0.537974         1.135829
 H        -4.561471         1.315759         3.729401
