19
Iteration:  2108
 C         1.352305         0.318057        -0.391851
 C         0.012789        -0.178126         0.011820
 C        -1.197308        -0.256322         0.059367
 C        -2.570922         0.006779         0.329169
 O        -3.036912         1.142817        -0.443756
 C        -3.162847        -0.199305         1.786268
 C        -4.769331        -0.200757         1.499281
 C        -5.620244         0.639514         2.318029
 O        -5.377072         1.293077         3.314020
 H         1.402543         0.531101        -1.450960
 H         1.599630         1.312403         0.156281
 H         2.135534        -0.448003        -0.178413
 H        -3.166445        -0.807196        -0.173935
 H        -2.366807         1.854097        -0.296589
 H        -2.981780        -1.112703         2.350992
 H        -2.839842         0.716573         2.301825
 H        -4.983727        -0.001987         0.419017
 H        -4.989032        -1.337507         1.612192
 H        -6.729207         0.532165         2.173296
