19
Iteration:  4571charge 0 multiplicity 1
 C         1.295157         0.423357         0.049265
 C        -0.151556         0.236556         0.142633
 C        -1.340650        -0.123499         0.365541
 C        -2.802843        -0.198903         0.444882
 O        -3.381175        -0.084198        -0.951364
 C        -3.368516         1.092015         1.237646
 C        -4.829748         1.102558         1.268710
 C        -5.263977         0.291451         2.506666
 O        -4.569585         0.151139         3.486833
 H         1.738267        -0.037586         0.965541
 H         1.780466        -0.014388        -0.839000
 H         1.610771         1.487260         0.212273
 H        -3.318216        -1.126328         0.733397
 H        -3.139524         0.874464        -1.134125
 H        -2.879132         0.973523         2.254352
 H        -3.026220         2.037802         0.730366
 H        -5.283271         2.096998         1.388458
 H        -5.424268         0.531723         0.525371
 H        -6.294550        -0.079556         2.586121
