19
Iteration:    50charge 0 multiplicity 1
 C         1.581090        -0.073657        -0.089845
 C         0.077792         0.046845         0.092574
 C        -1.155933         0.060361         0.009885
 C        -2.646939         0.052620        -0.065132
 O        -2.949248         1.395176        -0.652344
 C        -3.369245        -0.092628         1.258733
 C        -4.875418         0.294709         1.431638
 C        -5.054888         0.714848         2.889215
 O        -5.934082         0.360577         3.663137
 H         2.194772         0.258208         0.780811
 H         1.898039        -1.133518        -0.371650
 H         1.890802         0.533562        -0.974514
 H        -3.079785        -0.766490        -0.802168
 H        -3.235998         1.180331        -1.578911
 H        -3.383334        -1.232743         1.463349
 H        -2.773639         0.600821         1.896525
 H        -5.207775         1.179557         0.780225
 H        -5.566159        -0.565391         1.211666
 H        -4.307194         1.574929         3.290748
