19
Iteration:  1321charge 0 multiplicity 1
 C         1.310283        -0.022093         0.308000
 C        -0.136243        -0.138569         0.072225
 C        -1.303540         0.101908        -0.313795
 C        -2.721711         0.111165        -0.205906
 O        -3.280897         1.536791        -0.375340
 C        -3.133718        -0.344380         1.179344
 C        -4.599526         0.086882         1.441053
 C        -4.895441         0.243983         2.897186
 O        -5.649697         1.026139         3.380103
 H         1.732471        -0.930320         0.778440
 H         1.873496         0.167363        -0.640871
 H         1.459112         0.841052         0.967543
 H        -3.279766        -0.451485        -1.037721
 H        -2.682495         1.913943        -1.077317
 H        -2.778137        -1.300523         1.264456
 H        -2.539699         0.065915         1.955205
 H        -4.665551         1.086879         0.951655
 H        -5.242345        -0.590305         0.858837
 H        -4.263883        -0.496372         3.546613
