19
Iteration:  1126charge 0 multiplicity 1
 C         1.580781        -0.161301        -0.365005
 C         0.213885        -0.126039        -0.085613
 C        -1.010585         0.129904         0.035510
 C        -2.507586         0.162519         0.027269
 O        -2.977947         1.272049        -0.655071
 C        -3.332277         0.233025         1.445048
 C        -4.849977         0.414710         1.531760
 C        -5.343499         0.117835         2.901757
 O        -6.118400         0.702669         3.625153
 H         2.035072        -0.851196         0.337510
 H         1.734215        -0.486880        -1.408557
 H         2.024652         0.814430        -0.244928
 H        -2.750052        -0.739840        -0.437519
 H        -2.314046         2.018010        -0.526129
 H        -3.000335        -0.760727         1.815820
 H        -2.732854         0.931519         2.050978
 H        -5.216652         1.252118         0.978096
 H        -5.307297        -0.351172         0.907499
 H        -4.976775        -0.902867         3.302566
