19
Iteration:  3185charge 0 multiplicity 1
 C         1.172831         0.520603        -0.558013
 C        -0.038609         0.144294         0.142221
 C        -1.243970        -0.083019         0.408734
 C        -2.769811        -0.163048         0.387510
 O        -3.293608         1.096527        -0.057260
 C        -3.278062        -0.692067         1.715440
 C        -4.865013        -0.661605         1.715648
 C        -5.338834         0.784543         2.103701
 O        -4.677030         1.661747         2.650288
 H         1.835209        -0.242131        -0.345053
 H         0.907061         0.581648        -1.631372
 H         1.583586         1.470127        -0.263935
 H        -2.956081        -0.989863        -0.434745
 H        -3.686778         1.491486         0.762988
 H        -2.920762        -1.670956         1.992765
 H        -2.939527         0.018344         2.499489
 H        -5.302314        -1.111024         0.707843
 H        -5.324979        -1.215474         2.667181
 H        -6.315073         1.127680         1.746728
