19
Iteration:  3246
 C         1.302937         0.105048        -0.215239
 C        -0.074743         0.347715        -0.203580
 C        -1.267568         0.176603         0.085325
 C        -2.718993        -0.116497         0.276866
 O        -3.488981         1.072115        -0.130003
 C        -3.159369        -0.466719         1.732303
 C        -4.650144        -0.623165         1.770343
 C        -5.324383         0.602913         2.286075
 O        -4.986453         1.645607         2.826327
 H         1.404832        -1.038360         0.024854
 H         1.882296         0.201506        -1.184716
 H         1.859920         0.682735         0.575685
 H        -3.119544        -0.801161        -0.409955
 H        -3.026415         1.909672        -0.336606
 H        -2.662059        -1.436905         1.991323
 H        -2.695221         0.306979         2.332188
 H        -5.089137        -0.991918         0.900060
 H        -4.907047        -1.370569         2.499542
 H        -6.345574         0.541983         1.852271
