19
Iteration:   204charge 0 multiplicity 1
 C         1.474127        -0.078006         0.031599
 C        -0.008924        -0.016212        -0.031209
 C        -1.241287         0.023203        -0.110134
 C        -2.671775         0.210161        -0.188038
 O        -3.131042         1.479470        -0.611069
 C        -3.137194        -0.146134         1.327186
 C        -4.657920        -0.106940         1.602099
 C        -4.964302         0.608617         2.872547
 O        -6.024139         0.694570         3.462460
 H         1.881567         0.357081         0.948775
 H         1.864299        -1.218809         0.017001
 H         1.970755         0.449057        -0.800951
 H        -3.181691        -0.541636        -0.776893
 H        -3.159724         2.206655         0.001864
 H        -2.655763        -1.264670         1.428278
 H        -2.426920         0.386775         1.890755
 H        -5.078948         0.507061         0.740747
 H        -5.030779        -1.121930         1.667413
 H        -4.253224         1.288280         3.383606
