19
Iteration:  4239charge 0 multiplicity 1
 C         1.341772         0.312760        -0.619584
 C        -0.015040         0.401337         0.045566
 C        -1.202039         0.157905         0.325973
 C        -2.511697         0.131362         0.830787
 O        -3.373554        -0.521589        -0.041647
 C        -3.196888         1.342459         1.534753
 C        -4.709717         1.313133         1.379631
 C        -5.522034         0.269903         2.030915
 O        -5.137031        -0.264151         3.032249
 H         2.097274         0.686021         0.085634
 H         1.589546        -0.766003        -0.851027
 H         1.529208         0.968026        -1.498948
 H        -2.638701        -0.511447         1.776561
 H        -3.030002        -0.792955        -0.900741
 H        -2.998999         1.334600         2.613140
 H        -2.943426         2.348265         1.162476
 H        -5.040660         2.316718         1.782600
 H        -5.068834         1.317633         0.278695
 H        -6.548390         0.206833         1.556574
