19
Iteration:  1406
 C         1.458526         0.024842         0.050370
 C        -0.093334        -0.104381         0.062001
 C        -1.280979        -0.094074        -0.108768
 C        -2.699730         0.226225        -0.173708
 O        -2.940963         1.457114        -0.706363
 C        -3.225466        -0.038869         1.303257
 C        -4.815979         0.042835         1.495850
 C        -5.134873         0.063053         2.982609
 O        -5.739650         1.015988         3.535465
 H         1.981059        -0.951350         0.195595
 H         1.667720         0.400256        -0.901755
 H         1.899375         0.711535         0.789250
 H        -3.207660        -0.463265        -0.820557
 H        -2.283265         2.086978        -0.388723
 H        -3.048118        -1.109713         1.453352
 H        -2.723781         0.751117         1.914602
 H        -5.233772         0.915207         0.944283
 H        -5.081399        -0.836216         0.893110
 H        -4.607895        -0.734561         3.493537
