19
Iteration:  1305charge 0 multiplicity 1
 C         1.293705        -0.076621         0.280375
 C        -0.099615        -0.001314         0.120364
 C        -1.284725         0.055547        -0.217698
 C        -2.744779         0.240203        -0.289403
 O        -3.208234         1.485032        -0.373983
 C        -3.168102        -0.289037         1.120227
 C        -4.599024         0.052987         1.448940
 C        -4.868504         0.182651         2.975986
 O        -5.654799         1.047563         3.344944
 H         1.644923        -1.029155         0.727648
 H         1.738482        -0.015076        -0.706853
 H         1.672197         0.768953         0.887327
 H        -3.137562        -0.505511        -0.976643
 H        -3.186191         1.716991        -1.310689
 H        -3.255814        -1.460367         1.194992
 H        -2.350611         0.153005         1.802968
 H        -4.993261         0.994088         1.002676
 H        -5.382754        -0.780431         1.203431
 H        -4.314134        -0.550525         3.555407
