19
Iteration:  4183charge 0 multiplicity 1
 C         1.288436         0.400910        -0.456156
 C        -0.107664         0.468642        -0.208309
 C        -1.193009         0.281671         0.324394
 C        -2.459868        -0.053613         0.887160
 O        -3.189881        -0.649286        -0.263526
 C        -3.186669         1.092347         1.632744
 C        -4.674354         1.274447         1.255132
 C        -5.623322         0.454999         2.179639
 O        -5.179043        -0.143050         3.125483
 H         1.935048         0.858480         0.314979
 H         1.537942        -0.663699        -0.524617
 H         1.494127         0.598891        -1.529873
 H        -2.568343        -0.970778         1.556345
 H        -3.394236         0.071978        -0.924295
 H        -3.171796         1.062727         2.732844
 H        -2.735804         2.038939         1.402340
 H        -4.967162         2.300025         1.634266
 H        -5.096435         1.212096         0.159271
 H        -6.657084         0.816426         2.194261
