19
Iteration:  3783charge 0 multiplicity 1
 C         1.260477         0.292647         0.407123
 C        -0.256536         0.205169         0.387717
 C        -1.428374        -0.023624         0.308000
 C        -2.856450        -0.079987         0.122541
 O        -3.369957        -0.142916        -1.212659
 C        -3.493555         1.073831         0.769520
 C        -4.857005         0.874803         1.377071
 C        -5.127030         0.423622         2.806563
 O        -4.351765         0.430117         3.711767
 H         1.639835         0.866725        -0.438935
 H         1.630441         0.682015         1.410983
 H         1.558831        -0.743093         0.280317
 H        -3.203750        -1.038056         0.634310
 H        -2.949172        -0.866760        -1.707568
 H        -2.743953         1.577110         1.391972
 H        -3.450994         1.720158        -0.149107
 H        -5.412458         1.686000         0.934163
 H        -5.258410         0.085990         0.806046
 H        -6.150383        -0.042349         2.893107
