19
Iteration:  2460charge 0 multiplicity 1
 C         1.173215         0.636482         0.112271
 C        -0.203314         0.231728         0.301550
 C        -1.372884         0.008433         0.259368
 C        -2.802380        -0.278516         0.043076
 O        -3.434351         0.871227        -0.557981
 C        -3.575880        -0.786489         1.318836
 C        -4.977773        -0.197665         1.513088
 C        -5.072928         0.960222         2.397720
 O        -4.175509         1.259552         3.173833
 H         1.174162         1.693375        -0.246367
 H         1.605055         0.696375         1.112073
 H         1.626257         0.018537        -0.697120
 H        -2.851088        -1.069663        -0.749576
 H        -2.686638         1.398725        -0.943358
 H        -3.837134        -1.844177         1.107999
 H        -3.059048        -0.679416         2.274094
 H        -5.528069         0.104538         0.637282
 H        -5.638048        -0.942855         1.839418
 H        -6.045615         1.411751         2.639708
