19
Iteration:   307
 C         1.548182        -0.204515        -0.260131
 C         0.099102        -0.018897        -0.185544
 C        -1.120296         0.034459        -0.106086
 C        -2.547645         0.135794         0.010936
 O        -3.118348         1.388490        -0.484286
 C        -3.033929         0.072020         1.513244
 C        -4.622638         0.234720         1.635160
 C        -5.219474         0.684196         2.963747
 O        -6.300344         0.379655         3.376479
 H         2.088506         0.293339         0.623057
 H         1.806498        -1.247735        -0.294520
 H         1.927247         0.215799        -1.247989
 H        -3.081240        -0.719245        -0.461572
 H        -2.497391         1.700369        -1.185750
 H        -2.488225        -0.699976         2.010366
 H        -2.519797         0.917128         1.905509
 H        -4.942437         1.055868         0.845888
 H        -5.223116        -0.650397         1.326031
 H        -4.658562         1.345776         3.530246
