19
Iteration:  2627charge 0 multiplicity 1
 C         1.326878         0.264494         0.116838
 C        -0.116027         0.063802        -0.006298
 C        -1.319086        -0.119905        -0.034137
 C        -2.778065        -0.174662        -0.064549
 O        -3.387512         0.905456        -0.900866
 C        -3.138778         0.040240         1.461156
 C        -4.645800        -0.276200         1.731513
 C        -5.407743         0.722875         2.542131
 O        -4.941047         1.240029         3.546605
 H         1.676127         1.294406         0.418203
 H         1.752584        -0.315178         0.925806
 H         1.972944         0.139557        -0.805817
 H        -3.267935        -1.114044        -0.430811
 H        -3.198955         1.748367        -0.401601
 H        -2.500485        -0.731356         2.033368
 H        -2.919517         1.136886         1.623918
 H        -5.174371        -0.395676         0.795747
 H        -4.646201        -1.263286         2.224700
 H        -6.502856         0.692172         2.490582
