19
Iteration:  1784charge 0 multiplicity 1
 C         1.127797         0.156398         0.770364
 C        -0.259197         0.129581         0.324777
 C        -1.416151        -0.034270        -0.056909
 C        -2.801624        -0.074697        -0.282853
 O        -3.215508         0.831062        -1.362977
 C        -3.409228         0.127295         1.161933
 C        -4.823747         0.746077         1.288194
 C        -5.198867         0.602781         2.821337
 O        -4.502756         0.253381         3.775623
 H         1.763837        -0.518368         0.144354
 H         1.584183         1.097736         0.880951
 H         1.174639        -0.148614         1.840368
 H        -3.042178        -0.965078        -0.864666
 H        -3.036715         1.755739        -1.201042
 H        -3.184598        -0.697356         1.899870
 H        -2.719489         0.933972         1.497163
 H        -4.741569         1.836887         1.210810
 H        -5.674222         0.489746         0.726032
 H        -6.250182         0.754292         3.101471
