19
Iteration:  4942
 C         1.296764         0.302985         0.538246
 C        -0.136662         0.394491         0.073044
 C        -1.328682         0.223788         0.170518
 C        -2.812646        -0.036703         0.322334
 O        -3.454397        -0.471318        -0.889565
 C        -3.500780         1.282473         0.797053
 C        -4.930153         1.094729         1.402542
 C        -5.118729         0.555215         2.710375
 O        -4.414860        -0.153733         3.387069
 H         1.828890        -0.016693        -0.365879
 H         1.779001         1.205517         0.991359
 H         1.309242        -0.601552         1.205338
 H        -3.154494        -0.724973         1.100199
 H        -2.853412        -0.959489        -1.513540
 H        -2.779067         1.851799         1.416444
 H        -3.663343         1.912458        -0.109183
 H        -5.483719         2.048595         1.549296
 H        -5.477064         0.410739         0.694373
 H        -6.216127         0.763764         3.071629
