19
Iteration:  4087
 C         1.235587         0.774700        -0.436108
 C        -0.122306         0.284709         0.124897
 C        -1.181303        -0.228268         0.669729
 C        -2.691244        -0.227705         0.749635
 O        -3.160363        -0.403115        -0.741085
 C        -3.127186         1.101844         1.272017
 C        -4.712231         1.227692         1.340516
 C        -5.500973         0.613162         2.402918
 O        -5.083114        -0.126902         3.270906
 H         1.614243         1.776498        -0.152513
 H         2.010646         0.003233        -0.058291
 H         1.214279         0.686649        -1.532272
 H        -3.185166        -0.930666         1.428776
 H        -3.594792        -1.274954        -0.947653
 H        -2.671351         1.113028         2.299089
 H        -2.635451         1.929075         0.667625
 H        -5.003227         2.280922         1.674737
 H        -5.133599         1.090831         0.380129
 H        -6.524155         0.934476         2.462718
