19
Iteration:   886
 C         1.503433        -0.322132        -0.295048
 C         0.066709        -0.090289        -0.254805
 C        -1.099301        -0.009834         0.023071
 C        -2.552388         0.180022         0.058243
 O        -2.926568         1.484177        -0.528553
 C        -3.146846         0.242777         1.492648
 C        -4.697855         0.474989         1.529964
 C        -5.316386         0.721284         2.923486
 O        -6.159484         0.050674         3.497710
 H         1.820382        -0.475558         0.784470
 H         1.676517        -1.265621        -0.859482
 H         2.004146         0.568115        -0.732144
 H        -2.915246        -0.789938        -0.521417
 H        -2.168253         1.688906        -1.100760
 H        -3.008843        -0.730653         2.062614
 H        -2.808472         1.156400         2.053270
 H        -5.058910         1.262587         0.933855
 H        -5.382524        -0.293448         1.038691
 H        -4.905191         1.706556         3.287849
