19
Iteration:  3762charge 0 multiplicity 1
 C         1.270157         0.377366         0.450850
 C        -0.158279         0.001528         0.335208
 C        -1.378128        -0.035942         0.065045
 C        -2.789381        -0.111965         0.131415
 O        -3.436578        -0.162458        -1.230340
 C        -3.443113         1.172506         0.900200
 C        -4.879449         0.748802         1.345334
 C        -5.113105         0.437243         2.784811
 O        -4.464701         0.486686         3.783071
 H         1.433747         0.974765        -0.444825
 H         1.322010         0.986650         1.445632
 H         1.874833        -0.528615         0.490541
 H        -3.258400        -0.972882         0.676180
 H        -2.828711        -0.572009        -1.867401
 H        -2.813952         1.341820         1.771157
 H        -3.360780         2.058503         0.197430
 H        -5.578174         1.629820         1.213495
 H        -5.257468         0.000782         0.757036
 H        -6.206653         0.529383         2.939030
