19
Iteration:  4456charge 0 multiplicity 1
 C         1.298960         0.265085        -0.265383
 C        -0.050491         0.490346         0.012805
 C        -1.180845         0.208783         0.402617
 C        -2.673102         0.072144         0.562684
 O        -3.350295        -0.476892        -0.603329
 C        -3.195594         1.292286         1.347060
 C        -4.813657         1.329085         1.484331
 C        -5.466374         0.515138         2.520004
 O        -4.955822        -0.432700         3.108817
 H         1.984484         0.149418         0.575902
 H         1.338262        -0.659160        -0.883847
 H         1.774776         1.092786        -0.819174
 H        -2.684448        -0.683370         1.334425
 H        -3.087710        -1.434589        -0.676861
 H        -2.733069         1.283189         2.342853
 H        -2.927633         2.120200         0.723837
 H        -5.026999         2.383273         1.518284
 H        -5.208807         1.034634         0.431579
 H        -6.564187         0.879636         2.770435
