19
Iteration:  2111charge 0 multiplicity 1
 C         1.361360         0.349322        -0.403878
 C         0.032349        -0.193375         0.014638
 C        -1.211849        -0.250324         0.071768
 C        -2.574901        -0.001715         0.333122
 O        -3.036889         1.123668        -0.405599
 C        -3.195692        -0.194264         1.764097
 C        -4.737860        -0.192037         1.494020
 C        -5.618787         0.628554         2.327950
 O        -5.353778         1.300185         3.290843
 H         1.341766         0.578143        -1.501577
 H         1.573437         1.231211         0.159716
 H         2.031646        -0.493328        -0.073835
 H        -3.241114        -0.743169        -0.188414
 H        -2.436742         1.865448        -0.318884
 H        -3.068987        -1.154237         2.271949
 H        -2.831416         0.702365         2.276978
 H        -5.057341        -0.029619         0.464586
 H        -4.980723        -1.255825         1.611530
 H        -6.741062         0.534594         2.097387
