19
Iteration:  1798charge 0 multiplicity 1
 C         1.129476         0.171030         0.789343
 C        -0.169042         0.010743         0.341794
 C        -1.356809         0.004949         0.048273
 C        -2.824799        -0.098315        -0.354520
 O        -3.211669         0.848606        -1.382892
 C        -3.498651         0.248611         1.054655
 C        -4.893178         0.770458         1.444582
 C        -5.246925         0.560607         2.862227
 O        -4.414948         0.260280         3.694470
 H         1.861685        -0.376207         0.118352
 H         1.329149         1.220545         0.607669
 H         1.235186        -0.299963         1.794867
 H        -3.104318        -1.171305        -0.560112
 H        -2.776111         1.683463        -1.038028
 H        -3.369525        -0.722901         1.639872
 H        -2.847903         1.009715         1.535058
 H        -5.058939         1.743834         0.949130
 H        -5.575640         0.082366         0.906638
 H        -6.334305         0.803644         2.985396
