19
Iteration:  1585
 C         1.442378        -0.123749        -0.332065
 C         0.030710         0.005541         0.021108
 C        -1.098767         0.067326         0.345363
 C        -2.556582         0.161155         0.228411
 O        -2.975811         1.005195        -0.745390
 C        -3.335482         0.550843         1.501339
 C        -4.898237         0.322041         1.330590
 C        -5.679846         0.238299         2.534214
 O        -5.282122         0.546326         3.617508
 H         1.752082        -1.063206        -0.637476
 H         1.876495         0.590844        -1.048577
 H         1.976262        -0.006814         0.570139
 H        -2.940639        -0.909681         0.009901
 H        -2.988518         1.881789        -0.261329
 H        -3.041286         0.077186         2.385559
 H        -3.359500         1.625434         1.732433
 H        -5.295433         1.094212         0.709062
 H        -5.057787        -0.600627         0.735004
 H        -6.646406        -0.419996         2.488431
