19
Iteration:  2428charge 0 multiplicity 1
 C         1.141261         0.548306         0.323746
 C        -0.250219         0.322423         0.289727
 C        -1.401325         0.014149         0.097104
 C        -2.851199        -0.288504        -0.086044
 O        -3.697076         0.894276        -0.454287
 C        -3.432331        -0.761875         1.275137
 C        -4.908093        -0.352015         1.535417
 C        -4.913812         1.004788         2.297104
 O        -4.138227         1.313939         3.162180
 H         1.508900         1.547526        -0.090087
 H         1.576886         0.495310         1.340622
 H         1.782410        -0.262768        -0.240371
 H        -3.007735        -1.093384        -0.808111
 H        -3.008546         1.586033        -0.399464
 H        -3.452761        -1.852745         1.420868
 H        -2.909612        -0.465417         2.161733
 H        -5.329605         0.113923         0.673718
 H        -5.614723        -1.142593         1.955916
 H        -5.783445         1.667895         2.045038
