19
Iteration:  1181charge 0 multiplicity 1
 C         1.339894        -0.148839        -0.090273
 C        -0.030305        -0.017210        -0.058590
 C        -1.193508        -0.005133        -0.121085
 C        -2.629867         0.184123         0.078599
 O        -3.076418         1.414055        -0.658491
 C        -3.021739         0.199379         1.509458
 C        -4.588867         0.173248         1.484990
 C        -5.360035        -0.065784         2.858248
 O        -5.847598         0.908997         3.430685
 H         1.658989        -0.935099         0.570904
 H         1.707531        -0.367217        -1.135888
 H         1.769393         0.791195         0.224734
 H        -3.042491        -0.649217        -0.390035
 H        -2.550391         2.200374        -0.364330
 H        -2.431583        -0.646294         1.994404
 H        -2.430771         1.070071         1.877218
 H        -5.014389         1.094570         1.025277
 H        -4.781775        -0.687088         0.793647
 H        -5.321748        -1.104525         3.287437
