19
Iteration:   502charge 0 multiplicity 1
 C         1.439922        -0.544729        -0.218396
 C         0.072195        -0.033710         0.010180
 C        -1.134714         0.131251         0.031481
 C        -2.576724         0.272071         0.106008
 O        -3.204937         1.316310        -0.772840
 C        -3.040770         0.579922         1.538734
 C        -4.603242         0.748109         1.569126
 C        -5.327637         0.691101         2.950811
 O        -5.932791        -0.301571         3.345888
 H         2.156376        -0.252430         0.552115
 H         1.427235        -1.578592        -0.258928
 H         1.829385        -0.192525        -1.185891
 H        -3.170106        -0.664904        -0.211388
 H        -2.476759         1.784485        -1.241825
 H        -2.891297        -0.345977         2.154450
 H        -2.391356         1.379407         1.744504
 H        -4.838946         1.618020         0.976157
 H        -5.131363         0.073346         0.958872
 H        -5.293264         1.550385         3.664667
