19
Iteration:   893charge 0 multiplicity 1
 C         1.484196        -0.313321        -0.313527
 C         0.131911        -0.136816        -0.249687
 C        -1.050887        -0.000978         0.028574
 C        -2.527191         0.281479         0.088778
 O        -2.964493         1.413753        -0.526811
 C        -3.219058         0.231888         1.424674
 C        -4.728338         0.468155         1.555481
 C        -5.285448         0.724594         2.953340
 O        -6.185077         0.064110         3.463087
 H         1.845394        -0.486324         0.725792
 H         1.715156        -1.160158        -0.904917
 H         2.067037         0.504616        -0.773535
 H        -2.936224        -0.605182        -0.325202
 H        -2.270238         1.729827        -1.082616
 H        -2.936003        -0.624173         1.985965
 H        -2.760266         0.967390         2.156280
 H        -4.996649         1.486995         1.066130
 H        -5.161685        -0.437986         1.067713
 H        -4.874495         1.663615         3.433197
