19
Iteration:  1861
 C         1.155044         0.056107         0.667798
 C        -0.252094         0.016474         0.288489
 C        -1.427987        -0.136169         0.023700
 C        -2.912676        -0.009291        -0.178169
 O        -3.146207         0.980075        -1.247408
 C        -3.408129         0.616277         1.087002
 C        -4.764846         0.338585         1.260789
 C        -5.244037         0.536329         2.774135
 O        -4.538427         0.334295         3.754919
 H         1.823072        -0.447796        -0.121114
 H         1.500123         1.068011         0.832283
 H         1.351197        -0.504402         1.651319
 H        -3.406439        -0.928095        -0.523258
 H        -2.309420         1.461196        -1.037923
 H        -2.752357         0.394540         2.006962
 H        -3.227511         1.734825         1.198363
 H        -5.518984         0.802498         0.584786
 H        -4.954473        -0.747697         1.294076
 H        -6.287004         0.854684         3.072515
