19
Iteration:  4879charge 0 multiplicity 1
 C         1.208849         0.327346         0.590142
 C        -0.171366         0.191089         0.327230
 C        -1.362881         0.191153         0.083987
 C        -2.882141         0.037255         0.219122
 O        -3.622458        -0.337712        -0.918778
 C        -3.363815         1.258176         0.949859
 C        -4.944062         0.902631         1.186424
 C        -5.046684         0.278064         2.583687
 O        -4.222141         0.203310         3.479668
 H         1.716676        -0.419124        -0.057080
 H         1.645669         1.299230         0.449129
 H         1.628465        -0.193136         1.558909
 H        -2.905381        -0.878661         0.894799
 H        -3.797159         0.498725        -1.436780
 H        -2.782754         1.405318         1.884001
 H        -3.180081         2.172921         0.378148
 H        -5.651125         1.709403         1.096051
 H        -5.378412         0.221877         0.392482
 H        -6.025464        -0.192415         2.751967
