19
Iteration:  2603
 C         1.247661         0.473694         0.128729
 C        -0.117296         0.081538        -0.097236
 C        -1.310630        -0.247245        -0.062296
 C        -2.758559        -0.182475        -0.002952
 O        -3.197837         0.870797        -0.770497
 C        -3.279610        -0.168490         1.425728
 C        -4.853332        -0.291044         1.679142
 C        -5.389847         0.818187         2.574185
 O        -4.801358         1.268501         3.524266
 H         1.480808         1.516197         0.280130
 H         1.736987        -0.035175         0.929265
 H         1.801279         0.274161        -0.804597
 H        -3.223858        -1.083405        -0.508972
 H        -2.695212         1.697113        -0.597915
 H        -2.822602        -1.038984         2.004834
 H        -2.908110         0.871016         1.751707
 H        -5.498552        -0.336018         0.730404
 H        -4.916486        -1.291730         2.168907
 H        -6.427301         1.151579         2.413297
