19
Iteration:  3958
 C         1.285947         0.301004         0.472913
 C        -0.122926         0.330002         0.039999
 C        -1.347055         0.171360         0.104063
 C        -2.768660         0.171959         0.400115
 O        -3.468442        -0.761173        -0.650379
 C        -3.492128         1.436642         0.841742
 C        -4.952796         1.280107         1.372394
 C        -5.178447         0.358576         2.555342
 O        -4.368532        -0.134498         3.298557
 H         1.671315         1.294812         0.417949
 H         1.391322        -0.141017         1.510775
 H         1.876800        -0.330636        -0.144199
 H        -2.790526        -0.446283         1.311375
 H        -3.146998        -0.589655        -1.550862
 H        -3.013359         1.671196         1.796307
 H        -3.391687         2.178714         0.011988
 H        -5.308404         2.294385         1.656500
 H        -5.694012         1.060772         0.509211
 H        -6.278626         0.420987         2.840727
