19
Iteration:  3417charge 0 multiplicity 1
 C         1.456612        -0.148539        -0.109693
 C         0.023081        -0.093606        -0.118953
 C        -1.188315         0.254458        -0.046467
 C        -2.709581         0.107920         0.139164
 O        -3.552110         1.273489        -0.509533
 C        -3.093234         0.010351         1.570612
 C        -4.504336        -0.517303         1.875895
 C        -5.377337         0.270697         2.816307
 O        -5.359732         1.483376         2.887610
 H         1.819837        -0.978518        -0.759997
 H         1.767047         0.811158        -0.601935
 H         1.890191        -0.198812         0.952704
 H        -3.227902        -0.722749        -0.310255
 H        -2.837856         1.831088        -0.866163
 H        -2.216811        -0.509822         2.059003
 H        -3.075836         1.063964         1.983477
 H        -5.093593        -0.401109         0.886341
 H        -4.514804        -1.582648         1.901368
 H        -6.228884        -0.238779         3.347630
