19
Iteration:   609
 C         1.203127        -0.460600         0.262409
 C        -0.230396        -0.214314         0.101392
 C        -1.331538         0.103027        -0.168969
 C        -2.729078         0.404495        -0.200536
 O        -2.860340         1.592222        -0.937867
 C        -3.184613         0.584138         1.194331
 C        -4.631295         0.485758         1.541320
 C        -4.986178         0.495872         3.022957
 O        -5.744967        -0.232875         3.633975
 H         1.564573         0.013142         1.183148
 H         1.555933        -1.546233         0.174429
 H         1.654583         0.112210        -0.598167
 H        -3.340806        -0.423889        -0.568269
 H        -2.150241         1.653683        -1.571052
 H        -2.797732        -0.181959         1.767899
 H        -2.530169         1.457847         1.519302
 H        -5.193239         1.380987         1.201070
 H        -5.049341        -0.569986         1.297964
 H        -4.377292         1.315596         3.593768
