19
Iteration:   477charge 0 multiplicity 1
 C         1.410059        -0.492640        -0.311015
 C         0.055557        -0.083908        -0.047847
 C        -1.101451         0.195102         0.022353
 C        -2.549208         0.217083         0.194174
 O        -3.134772         1.208179        -0.683411
 C        -3.117118         0.582853         1.653249
 C        -4.636029         0.723267         1.574385
 C        -5.294778         0.684798         2.846903
 O        -5.944548        -0.226334         3.263226
 H         2.109274        -0.122446         0.386165
 H         1.591635        -1.614400        -0.435197
 H         1.643383        -0.056666        -1.268421
 H        -3.000232        -0.756405        -0.094885
 H        -2.747672         2.033712        -0.360997
 H        -2.935321        -0.167011         2.328145
 H        -2.432457         1.451541         1.829456
 H        -4.902165         1.673447         0.994227
 H        -5.223059         0.083836         0.807877
 H        -5.071829         1.575785         3.523154
