19
Iteration:  2530
 C         1.161971         0.749835        -0.082780
 C        -0.136797         0.192909         0.228424
 C        -1.295894        -0.255498         0.210982
 C        -2.743789        -0.456401         0.065103
 O        -3.291404         0.879600        -0.412104
 C        -3.542098        -0.692592         1.392507
 C        -4.979605        -0.044793         1.357887
 C        -5.265896         0.851635         2.529698
 O        -4.392690         1.318020         3.253540
 H         1.246644         1.908849        -0.279010
 H         1.879094         0.722163         0.796721
 H         1.570570         0.324681        -1.080412
 H        -2.919306        -1.312572        -0.579096
 H        -2.495787         1.295950        -0.838170
 H        -3.661543        -1.777702         1.573524
 H        -3.022719        -0.155976         2.224236
 H        -4.676332         0.738740         0.629568
 H        -6.010556        -0.348778         1.016779
 H        -6.327425         1.060815         2.837837
