19
Iteration:   272
 C         1.409839        -0.269564        -0.142682
 C         0.054619         0.177239        -0.183891
 C        -1.160043         0.179352        -0.038114
 C        -2.615055         0.186019         0.031026
 O        -3.213768         1.345395        -0.567486
 C        -2.965730        -0.114081         1.523312
 C        -4.561161         0.124274         1.573521
 C        -5.078801         0.711434         2.899637
 O        -6.191211         0.491442         3.335350
 H         2.005348         0.074467         0.741289
 H         1.396546        -1.428376        -0.100143
 H         2.016941         0.084670        -1.029370
 H        -2.836049        -0.738694        -0.534391
 H        -2.481868         1.929875        -0.878779
 H        -2.871560        -1.260351         1.668559
 H        -2.499720         0.523596         2.247465
 H        -5.020934         0.844122         0.795835
 H        -5.036621        -0.822071         1.516414
 H        -4.244283         1.235336         3.507802
