19
Iteration:  1574
 C         1.490758        -0.186415        -0.320456
 C         0.079193         0.058691        -0.015921
 C        -1.105574         0.077407         0.314711
 C        -2.578839         0.110087         0.317677
 O        -3.020151         1.027651        -0.758489
 C        -3.367915         0.610415         1.564415
 C        -4.798662         0.323014         1.281159
 C        -5.636013         0.130143         2.538811
 O        -5.381479         0.596541         3.648580
 H         1.538447        -1.133568        -0.725859
 H         1.716965         0.532164        -1.133425
 H         2.157847        -0.011394         0.469137
 H        -2.863804        -0.851563        -0.168645
 H        -3.182252         1.906521        -0.408411
 H        -3.019396         0.029002         2.361061
 H        -2.966737         1.593840         1.729026
 H        -5.322413         1.132506         0.819426
 H        -4.991164        -0.529495         0.602999
 H        -6.641555        -0.383270         2.239635
