19
Iteration:  1894
 C         1.320087        -0.058321         0.605933
 C        -0.171113        -0.057728         0.235446
 C        -1.344585        -0.060594        -0.148777
 C        -2.807466         0.187140        -0.180215
 O        -3.142990         0.969184        -1.379155
 C        -3.346489         0.699996         1.201802
 C        -4.757967         0.164324         1.419499
 C        -5.468996         0.468825         2.879435
 O        -4.748074         0.465124         3.857682
 H         1.933752        -0.456356        -0.278865
 H         1.602696         0.957573         0.705701
 H         1.477404        -0.741745         1.507036
 H        -3.187108        -0.816648        -0.367487
 H        -2.409096         1.619683        -1.524136
 H        -2.839807         0.178727         2.073963
 H        -3.538841         1.783401         1.411379
 H        -5.370075         0.541855         0.549098
 H        -4.862048        -0.953182         1.399051
 H        -6.626929         0.560396         2.877299
