19
Iteration:  3326
 C         1.252549        -0.059475         0.138469
 C        -0.136399        -0.218358         0.067845
 C        -1.317191         0.134125        -0.204406
 C        -2.875302         0.246320        -0.000814
 O        -3.590314         1.345448        -0.566603
 C        -3.005267        -0.035794         1.466418
 C        -4.250066        -0.543528         2.025276
 C        -5.361956         0.353283         2.450705
 O        -5.097856         1.411455         2.971190
 H         1.776169        -1.025230         0.004745
 H         1.510368         0.601821        -0.800553
 H         1.782957         0.383627         1.014012
 H        -3.299739        -0.585651        -0.480556
 H        -3.489283         2.043742         0.137501
 H        -2.111904        -0.680554         1.575112
 H        -2.707448         0.910883         1.997713
 H        -4.599980        -1.407413         1.454222
 H        -4.190954        -0.924144         2.984797
 H        -6.358204        -0.155677         2.469469
