19
Iteration:  3318
 C         1.296962        -0.032353         0.110980
 C        -0.190020        -0.228396         0.046415
 C        -1.331420         0.087218        -0.132954
 C        -2.786173         0.243752        -0.038520
 O        -3.651701         1.358417        -0.535052
 C        -2.956089        -0.016464         1.461090
 C        -4.297626        -0.563361         2.049917
 C        -5.363572         0.361573         2.445124
 O        -5.097853         1.430004         2.961165
 H         1.744992        -0.957522        -0.068812
 H         1.668163         0.507920        -0.711525
 H         1.585666         0.538627         0.980703
 H        -2.980397        -0.757098        -0.569044
 H        -3.541361         1.973849         0.232022
 H        -2.167336        -0.790060         1.632324
 H        -2.545295         0.862134         2.016233
 H        -4.748630        -1.330619         1.320621
 H        -4.076135        -1.191161         2.951070
 H        -6.436106         0.098223         2.248342
