19
Iteration:  4674charge 0 multiplicity 1
 C         1.333423         0.115102         0.505527
 C        -0.025373         0.310119         0.086930
 C        -1.227200         0.209632         0.003180
 C        -2.699527         0.071454         0.187875
 O        -3.518066        -0.068345        -1.078466
 C        -3.582324         1.218767         0.897539
 C        -4.985716         0.705885         1.302442
 C        -5.242086         0.398098         2.844297
 O        -4.445691         0.155922         3.738589
 H         1.399125        -0.926275         0.881766
 H         2.166759         0.059709        -0.239670
 H         1.645701         0.810155         1.308854
 H        -2.897641        -0.945586         0.663319
 H        -2.914042        -0.110300        -1.828283
 H        -2.975370         1.523136         1.837677
 H        -3.608760         2.047442         0.120291
 H        -5.788862         1.439567         1.035297
 H        -5.138357        -0.248843         0.849631
 H        -6.315063         0.318312         3.050075
