19
Iteration:  4448
 C         1.438716         0.275486        -0.311032
 C        -0.053328         0.480420         0.097898
 C        -1.240840         0.222950         0.280717
 C        -2.634046         0.087676         0.614242
 O        -3.415841        -0.492415        -0.538163
 C        -3.263995         1.326978         1.343869
 C        -4.730619         1.322451         1.473010
 C        -5.465854         0.507528         2.512166
 O        -4.979929        -0.438918         3.061526
 H         1.983994         0.101523         0.611382
 H         1.270816        -0.682910        -0.907292
 H         1.911113         0.971399        -0.955496
 H        -2.808574        -0.750057         1.304419
 H        -3.064765        -1.427794        -0.523156
 H        -2.878811         1.409851         2.377144
 H        -3.004587         2.298777         0.870175
 H        -5.147807         2.299533         1.633251
 H        -5.072549         0.950224         0.473298
 H        -6.463691         0.737342         2.784472
