19
Iteration:  4763
 C         1.213204         0.277491         0.228925
 C        -0.236391         0.135585         0.477046
 C        -1.417302        -0.129007         0.483399
 C        -2.875546        -0.099607         0.210475
 O        -3.142590         0.132006        -1.184348
 C        -3.653561         1.196811         0.655136
 C        -4.981112         0.890667         1.397424
 C        -5.065943         0.218568         2.761367
 O        -4.302476         0.313976         3.694809
 H         1.719557        -0.637704        -0.035480
 H         1.254434         1.068627        -0.560096
 H         1.564282         0.696446         1.123876
 H        -3.422554        -0.970862         0.575605
 H        -2.616328        -0.539671        -1.678759
 H        -3.062841         1.823072         1.351641
 H        -3.908930         1.729629        -0.246748
 H        -5.711899         1.726840         1.362435
 H        -5.521727         0.301831         0.707241
 H        -5.949020        -0.502599         2.855499
