19
Iteration:  1105
 C         1.580702        -0.181918        -0.452203
 C         0.090676        -0.026025         0.054550
 C        -1.081185         0.052624         0.207305
 C        -2.581366         0.144437         0.054047
 O        -2.964338         1.358742        -0.761630
 C        -3.251378         0.144981         1.546839
 C        -4.747305         0.443819         1.443456
 C        -5.248523         0.121262         2.932368
 O        -6.165802         0.652352         3.550109
 H         2.152505        -0.840004         0.150367
 H         1.480827        -0.541128        -1.497620
 H         2.061130         0.769836        -0.538508
 H        -2.930578        -0.774867        -0.437496
 H        -2.170651         1.784402        -1.071319
 H        -2.818171        -0.756578         1.950621
 H        -2.746836         0.880305         2.155207
 H        -5.032966         1.416213         1.314237
 H        -5.406289        -0.024525         0.666016
 H        -4.686255        -0.715993         3.443670
