19
Iteration:  3995
 C         1.311936         0.513139         0.243128
 C        -0.119331         0.226380         0.271877
 C        -1.318253         0.082158         0.151578
 C        -2.738846        -0.023661         0.533503
 O        -3.668209        -0.466293        -0.662192
 C        -3.303577         1.300315         0.924594
 C        -4.720879         1.198197         1.314210
 C        -5.183066         0.413619         2.475253
 O        -4.604388        -0.144431         3.318929
 H         1.414635         1.640990         0.175035
 H         1.893072         0.197363         1.069971
 H         1.779220         0.129389        -0.724894
 H        -2.818698        -0.930385         1.246360
 H        -3.054658        -1.195289        -0.876282
 H        -2.667835         2.028110         1.397350
 H        -3.406319         1.773577        -0.051062
 H        -5.313445         2.141072         1.374534
 H        -5.302150         0.519443         0.529936
 H        -6.299518         0.631521         2.562761
