19
Iteration:  1949
 C         1.457135        -0.308022         0.282839
 C         0.010243         0.098823         0.087866
 C        -1.201122         0.242823        -0.005664
 C        -2.690985         0.178392        -0.057199
 O        -3.222792         0.911402        -1.189955
 C        -3.376716         0.615749         1.320399
 C        -4.836183         0.156270         1.462568
 C        -5.450399         0.157197         2.804327
 O        -5.051843         0.802288         3.765281
 H         1.915414        -0.758427        -0.658336
 H         2.104104         0.376179         0.776829
 H         1.487170        -1.041924         1.148368
 H        -2.954480        -0.875444        -0.143630
 H        -2.829958         1.815675        -1.153967
 H        -2.888739         0.081686         2.205602
 H        -3.448558         1.741675         1.476108
 H        -5.534570         0.539899         0.644564
 H        -4.923071        -0.975730         1.238138
 H        -6.479891        -0.252644         2.688804
