19
Iteration:  4738charge 0 multiplicity 1
 C         1.222819         0.215216         0.239799
 C        -0.208759         0.198617         0.545991
 C        -1.428761         0.023594         0.420223
 C        -2.862900         0.003987         0.171312
 O        -3.204593         0.086828        -1.275900
 C        -3.629872         1.133819         0.887754
 C        -4.990399         0.727333         1.345027
 C        -5.134551         0.289481         2.771792
 O        -4.223540         0.334700         3.588097
 H         1.532147        -0.841785         0.214312
 H         1.295745         0.730155        -0.675019
 H         1.744991         0.671883         1.115559
 H        -3.305372        -0.868816         0.621944
 H        -2.905031        -0.806810        -1.608182
 H        -3.011190         1.318686         1.869364
 H        -3.749464         2.050786         0.258239
 H        -5.719834         1.559340         1.174867
 H        -5.471514         0.143713         0.517788
 H        -6.146345        -0.083300         3.110042
