19
Iteration:  1881charge 0 multiplicity 1
 C         1.144791        -0.002508         0.584756
 C        -0.189341        -0.008507         0.284897
 C        -1.336053        -0.180394        -0.075538
 C        -2.747827         0.200908        -0.203203
 O        -3.148804         0.959797        -1.307823
 C        -3.332354         0.660340         1.200936
 C        -4.857855         0.192452         1.422203
 C        -5.343855         0.448263         2.787281
 O        -4.680083         0.426123         3.809124
 H         1.763214        -0.502913        -0.193148
 H         1.600374         0.946982         0.908349
 H         1.325021        -0.551771         1.542422
 H        -3.396877        -0.657292        -0.341592
 H        -2.485535         1.617665        -1.515727
 H        -2.489607         0.500155         1.905429
 H        -3.225869         1.774368         1.051850
 H        -5.580759         0.726122         0.721114
 H        -4.910481        -0.924289         1.146386
 H        -6.382128         0.907046         2.906966
