19
Iteration:  2521
 C         1.162079         0.747552        -0.097424
 C        -0.164344         0.236891         0.236337
 C        -1.269203        -0.224262         0.217080
 C        -2.766040        -0.390799         0.119010
 O        -3.239807         0.834413        -0.430361
 C        -3.599126        -0.733070         1.390240
 C        -5.030442         0.011846         1.385768
 C        -5.290652         0.856093         2.584582
 O        -4.336167         1.295467         3.192319
 H         1.020418         1.861275        -0.257964
 H         1.927463         0.605866         0.760367
 H         1.714873         0.254631        -0.928038
 H        -2.982024        -1.156640        -0.651298
 H        -2.501023         1.267556        -0.922965
 H        -3.651276        -1.817826         1.528332
 H        -2.880107        -0.539127         2.218974
 H        -4.855435         0.845290         0.570954
 H        -5.741311        -0.834165         0.917011
 H        -6.330800         1.148040         2.734143
