19
Iteration:    43charge 0 multiplicity 1
 C         1.511167        -0.082885        -0.082565
 C         0.093363         0.014491         0.043850
 C        -1.116254         0.079832         0.028798
 C        -2.612623         0.096965        -0.062026
 O        -2.957643         1.384989        -0.683999
 C        -3.362356        -0.089265         1.251246
 C        -4.918495         0.281733         1.434959
 C        -5.039075         0.746931         2.933748
 O        -5.946102         0.323573         3.645311
 H         2.041623         0.247697         0.765123
 H         1.801923        -1.152973        -0.333383
 H         1.738288         0.569303        -0.899421
 H        -2.868510        -0.705956        -0.692251
 H        -2.997905         1.130463        -1.631258
 H        -3.117903        -0.979861         1.809790
 H        -2.854856         0.542736         2.126394
 H        -5.061360         1.172586         0.855259
 H        -5.655666        -0.424053         1.178667
 H        -4.263107         1.445701         3.053017
