19
Iteration:  1573charge 0 multiplicity 1
 C         1.495536        -0.189978        -0.321744
 C         0.076639         0.062600        -0.015490
 C        -1.095711         0.079644         0.310295
 C        -2.585859         0.111534         0.326222
 O        -3.025468         1.034639        -0.764868
 C        -3.357158         0.607891         1.570584
 C        -4.792569         0.326192         1.275772
 C        -5.629180         0.119561         2.545282
 O        -5.395059         0.598628         3.645957
 H         1.527330        -1.146875        -0.710358
 H         1.701194         0.531417        -1.139944
 H         2.176314        -0.035034         0.454151
 H        -2.879638        -0.902055        -0.132382
 H        -3.186714         1.909551        -0.438782
 H        -3.048036        -0.020040         2.385012
 H        -2.965473         1.605857         1.688224
 H        -5.325054         1.131151         0.815214
 H        -4.957361        -0.501786         0.606822
 H        -6.659250        -0.361218         2.274470
