19
Iteration:  2811
 C         1.339426         0.004490        -0.262745
 C        -0.081551        -0.069810        -0.110851
 C        -1.259912        -0.207847         0.236061
 C        -2.680288         0.042568         0.085800
 O        -2.892399         0.739486        -1.146177
 C        -3.445794         0.717338         1.280373
 C        -4.552421        -0.079495         1.840355
 C        -5.249687         0.235936         3.142524
 O        -5.632508         1.325847         3.510363
 H         1.645264         0.704418         0.541087
 H         1.837712        -1.033231        -0.011964
 H         1.630372         0.593672        -1.192809
 H        -3.227190        -0.938949        -0.027803
 H        -2.097968         1.214010        -1.466628
 H        -2.690576         0.701034         2.090043
 H        -3.691576         1.785615         1.076960
 H        -5.383657        -0.127844         1.097992
 H        -4.163466        -1.132581         1.956681
 H        -5.319182        -0.762131         3.740401
