19
Iteration:  2429charge 0 multiplicity 1
 C         1.150615         0.555889         0.319661
 C        -0.250121         0.314796         0.298309
 C        -1.394926         0.014116         0.093686
 C        -2.851074        -0.297021        -0.071252
 O        -3.695759         0.899468        -0.461767
 C        -3.434622        -0.766158         1.276859
 C        -4.909575        -0.350052         1.531069
 C        -4.912861         1.005454         2.297077
 O        -4.141979         1.313906         3.164228
 H         1.530019         1.559446        -0.103146
 H         1.583576         0.526809         1.325666
 H         1.736957        -0.270134        -0.293401
 H        -3.003834        -1.071671        -0.817742
 H        -3.011591         1.574495        -0.428414
 H        -3.476581        -1.844392         1.425648
 H        -2.916204        -0.478968         2.162560
 H        -5.355648         0.117607         0.675919
 H        -5.658558        -1.160199         1.932488
 H        -5.784440         1.681021         2.108981
