19
Iteration:  3511
 C         1.503751         0.232955        -0.512157
 C         0.065037         0.047308        -0.204381
 C        -1.024753        -0.027598         0.308619
 C        -2.600289        -0.116745         0.307295
 O        -3.086743         0.810215        -0.664829
 C        -3.372153        -0.027881         1.656086
 C        -4.891940        -0.148911         1.528862
 C        -5.674011         0.498885         2.680267
 O        -5.286472         1.402296         3.400483
 H         1.782785        -0.186666        -1.447023
 H         1.765674         1.313286        -0.484536
 H         2.009167        -0.264660         0.275276
 H        -2.613904        -1.116700        -0.271839
 H        -2.870231         1.664236        -0.237188
 H        -2.997796        -0.621309         2.444530
 H        -3.105219         1.000018         1.927944
 H        -5.225977         0.392873         0.628930
 H        -5.362121        -1.148846         1.292028
 H        -6.486303        -0.157977         3.104972
