19
Iteration:  3361charge 0 multiplicity 1
 C         1.184457        -0.188770         0.172575
 C        -0.133141         0.201490        -0.181658
 C        -1.326580         0.100995        -0.231592
 C        -2.847382         0.137913         0.001616
 O        -3.375814         1.309517        -0.563104
 C        -3.026973         0.019762         1.550104
 C        -4.275359        -0.655441         2.118062
 C        -5.370429         0.297655         2.606156
 O        -5.182438         1.450952         2.920216
 H         1.217940        -1.192420        -0.221199
 H         1.862225         0.345856        -0.541244
 H         1.441758        -0.012356         1.244877
 H        -3.446961        -0.609565        -0.528115
 H        -2.970933         2.197184        -0.457250
 H        -2.163187        -0.453228         2.066002
 H        -3.090297         1.067713         1.943197
 H        -4.823491        -1.019389         1.180911
 H        -4.163719        -1.510439         2.671477
 H        -6.400827        -0.149803         2.657832
