19
Iteration:   309charge 0 multiplicity 1
 C         1.561351        -0.201958        -0.267208
 C         0.095095        -0.031890        -0.186043
 C        -1.106988         0.012223        -0.097413
 C        -2.543737         0.137222         0.015693
 O        -3.121096         1.390488        -0.486898
 C        -3.027806         0.097281         1.520209
 C        -4.622763         0.246792         1.638504
 C        -5.223654         0.671360         2.948192
 O        -6.312050         0.373863         3.387370
 H         2.080586         0.304367         0.585652
 H         1.821700        -1.211251        -0.295404
 H         1.900730         0.236013        -1.222093
 H        -3.144151        -0.669463        -0.531362
 H        -2.555121         1.713728        -1.193456
 H        -2.590939        -0.732355         1.954451
 H        -2.510787         0.989990         1.928269
 H        -4.890019         1.000010         0.792154
 H        -5.233464        -0.673027         1.302547
 H        -4.573591         1.393536         3.591843
