19
Iteration:  3325charge 0 multiplicity 1
 C         1.252312        -0.052673         0.139263
 C        -0.139628        -0.224889         0.065742
 C        -1.318388         0.125226        -0.194416
 C        -2.865096         0.250965        -0.002298
 O        -3.602163         1.349189        -0.564625
 C        -3.001036        -0.036686         1.462680
 C        -4.255987        -0.540519         2.026419
 C        -5.361894         0.354504         2.450733
 O        -5.096751         1.411090         2.968891
 H         1.776714        -1.052121        -0.027902
 H         1.544231         0.602181        -0.813175
 H         1.779227         0.424171         1.013534
 H        -3.220311        -0.613739        -0.469444
 H        -3.481046         2.010832         0.164922
 H        -2.108007        -0.667609         1.549379
 H        -2.680589         0.893738         1.984839
 H        -4.604504        -1.376816         1.456902
 H        -4.193690        -0.977261         3.010925
 H        -6.376131        -0.127870         2.436394
