19
Iteration:  2843charge 0 multiplicity 1
 C         1.328873         0.105069        -0.159697
 C        -0.057296        -0.136946        -0.008540
 C        -1.290334        -0.201275         0.046119
 C        -2.740722        -0.049134        -0.016666
 O        -2.961701         0.939245        -1.080394
 C        -3.326624         0.547946         1.366107
 C        -4.521795        -0.253061         1.892136
 C        -5.357651         0.256845         3.172749
 O        -5.510409         1.457591         3.378145
 H         1.609216         0.797967         0.694096
 H         2.020479        -0.915137        -0.094292
 H         1.426024         0.833876        -1.069385
 H        -3.262972        -1.070222        -0.188184
 H        -2.638409         0.446729        -1.849579
 H        -2.574333         0.488066         2.155586
 H        -3.689748         1.580009         1.141517
 H        -5.056979        -0.250921         0.994312
 H        -4.361634        -1.277617         2.089089
 H        -5.349065        -0.437342         4.023810
