19
Iteration:  2822charge 0 multiplicity 1
 C         1.280541         0.088332        -0.220694
 C        -0.100368        -0.130331        -0.117800
 C        -1.256588        -0.175129         0.239923
 C        -2.737841         0.040348         0.008283
 O        -2.908908         0.818025        -1.143979
 C        -3.332844         0.605074         1.313106
 C        -4.565927        -0.142581         1.852434
 C        -5.153689         0.287452         3.155583
 O        -5.643573         1.358068         3.475003
 H         1.549114         0.674497         0.687003
 H         1.835900        -0.995991        -0.066483
 H         1.736073         0.563841        -1.177038
 H        -3.133129        -1.020208        -0.179995
 H        -1.956261         0.660193        -1.415996
 H        -2.627707         0.592576         2.159212
 H        -3.635992         1.666478         1.115719
 H        -5.464100        -0.289458         1.235583
 H        -4.316468        -1.193911         2.130741
 H        -5.766795        -0.577852         3.611382
