19
Iteration:   259charge 0 multiplicity 1
 C         1.473206        -0.251907        -0.121732
 C         0.073247         0.137839        -0.122438
 C        -1.158864         0.166458        -0.013671
 C        -2.557859         0.206754         0.054814
 O        -3.336245         1.368431        -0.579179
 C        -3.099667        -0.118246         1.416856
 C        -4.525971         0.029268         1.529992
 C        -5.010077         0.651775         2.891652
 O        -6.157499         0.577364         3.376093
 H         1.889213         0.094989         0.811829
 H         1.482004        -1.455008        -0.106450
 H         2.060721         0.009163        -1.008828
 H        -3.053894        -0.509100        -0.579626
 H        -2.697691         2.089279        -0.673612
 H        -2.558432        -1.178632         1.818563
 H        -2.511882         0.511026         2.123332
 H        -4.687799         0.711987         0.667540
 H        -5.116314        -0.824346         1.266032
 H        -4.284033         1.321973         3.480507
