19
Iteration:  2928
 C         1.318952        -0.044142         0.172769
 C        -0.104020         0.199647        -0.131784
 C        -1.304091         0.272888        -0.154300
 C        -2.692052         0.000102         0.062805
 O        -3.639279         0.777879        -0.850665
 C        -3.045525         0.113012         1.620879
 C        -4.506613        -0.543408         1.943181
 C        -5.411585         0.486310         2.741403
 O        -4.980778         1.563088         3.063906
 H         1.639149         0.006882         1.198065
 H         1.541643        -1.016985        -0.200446
 H         2.036713         0.548351        -0.355769
 H        -2.796050        -1.047788        -0.302424
 H        -3.059261         1.317797        -1.451647
 H        -2.213488        -0.377044         2.179631
 H        -3.204888         1.155028         1.979088
 H        -5.127634        -0.689629         0.914910
 H        -4.530361        -1.497862         2.602588
 H        -6.443706         0.121947         3.118363
