19
Iteration:  1839
 C         1.143625         0.124794         0.733289
 C        -0.251371        -0.039577         0.315539
 C        -1.418945        -0.143605         0.003590
 C        -2.802399        -0.004332        -0.168075
 O        -3.142646         0.939512        -1.317182
 C        -3.430637         0.530360         1.137074
 C        -4.971183         0.421398         1.362104
 C        -5.257455         0.608148         2.817972
 O        -4.394568         0.273025         3.591364
 H         1.847764        -0.344787        -0.025844
 H         1.333088         1.183279         0.730226
 H         1.356594        -0.365070         1.739842
 H        -3.143461        -0.946101        -0.586507
 H        -2.512666         1.676179        -1.292719
 H        -3.079609        -0.025107         2.058275
 H        -3.054780         1.514100         1.486633
 H        -5.620208         1.220254         0.944889
 H        -5.417227        -0.526513         1.080612
 H        -6.238881         0.978096         3.216655
