19
Iteration:  1364
 C         1.320383         0.024374         0.292454
 C        -0.024213         0.064936        -0.223894
 C        -1.241528        -0.130572        -0.260127
 C        -2.743009         0.124557        -0.260232
 O        -2.991264         1.490313        -0.569302
 C        -3.186158        -0.239986         1.217013
 C        -4.725835         0.049514         1.501430
 C        -5.020507         0.181813         3.002243
 O        -5.738550         1.055377         3.499665
 H         1.453566        -1.017994         0.658265
 H         2.159876         0.187715        -0.401970
 H         1.456581         0.681735         1.156989
 H        -3.308642        -0.530584        -1.012067
 H        -2.852272         1.991492         0.287073
 H        -2.995935        -1.300306         1.398311
 H        -2.513426         0.336319         1.879402
 H        -5.130762         1.052194         1.155982
 H        -5.535671        -0.725554         1.160343
 H        -4.627359        -0.521091         3.766967
