19
Iteration:   995
 C         1.443901        -0.189481        -0.359812
 C         0.042475        -0.148165        -0.305157
 C        -1.151964         0.011867        -0.059662
 C        -2.448588         0.216598         0.139716
 O        -3.066401         1.312945        -0.506938
 C        -2.972065         0.315386         1.592248
 C        -4.489073         0.517067         1.741399
 C        -5.243297         0.240085         3.029110
 O        -6.430974         0.459509         3.170992
 H         1.857604        -0.604807         0.575876
 H         1.850704        -0.878192        -1.114491
 H         1.949235         0.769002        -0.497019
 H        -2.787099        -0.832554        -0.159145
 H        -2.610155         1.379827        -1.394050
 H        -2.823256        -0.662378         2.083725
 H        -2.537665         1.104243         2.247202
 H        -4.654805         1.582010         1.595222
 H        -4.897993        -0.150866         0.870794
 H        -4.616578         0.131433         4.003637
