19
Iteration:  1026
 C         1.654797        -0.096382        -0.366473
 C         0.151069        -0.327781        -0.376440
 C        -1.103619        -0.084877        -0.119207
 C        -2.560009         0.152696         0.139678
 O        -3.090026         1.391656        -0.485185
 C        -3.075288         0.333691         1.672437
 C        -4.524123         0.616685         1.737738
 C        -5.282200         0.207958         2.958853
 O        -6.425587         0.502083         3.275470
 H         2.101072        -0.532715         0.586038
 H         2.200540        -0.616310        -1.103304
 H         1.841353         0.992454        -0.336487
 H        -3.141860        -0.828319        -0.254772
 H        -2.726604         1.436777        -1.368457
 H        -2.872649        -0.619503         2.149503
 H        -2.520341         1.272173         1.982425
 H        -5.089810         1.479445         1.251620
 H        -4.966284        -0.322996         1.160722
 H        -4.750135        -0.425639         3.704817
