19
Iteration:   191charge 0 multiplicity 1
 C         1.486261        -0.036223         0.073553
 C        -0.027031         0.012522        -0.070182
 C        -1.251154        -0.048431        -0.144360
 C        -2.826429         0.184065        -0.101289
 O        -3.057581         1.527130        -0.676057
 C        -3.160743        -0.198211         1.290989
 C        -4.585659        -0.138496         1.658191
 C        -4.928372         0.672742         2.927026
 O        -6.022688         0.661416         3.420949
 H         1.745495         0.399726         1.049428
 H         1.821557        -1.098476         0.069935
 H         2.009183         0.483914        -0.730944
 H        -3.273392        -0.390839        -0.845830
 H        -2.704182         2.097064         0.068162
 H        -2.813917        -1.324660         1.407675
 H        -2.673471         0.416591         2.088258
 H        -5.116171         0.513217         0.996162
 H        -5.204539        -1.052013         1.486198
 H        -4.027067         1.329828         3.054405
