19
Iteration:  3081charge 0 multiplicity 1
 C         1.090920         0.754249        -0.287930
 C        -0.185007         0.060301         0.048055
 C        -1.339552        -0.419600         0.159174
 C        -2.816147        -0.264195         0.281067
 O        -3.234396         1.063668         0.075052
 C        -3.206773        -0.778578         1.613627
 C        -4.713192        -0.578902         1.830211
 C        -5.214103         0.838489         2.152166
 O        -4.726424         1.839967         2.629886
 H         1.919290         0.499460         0.439847
 H         1.514803         0.505630        -1.234547
 H         1.035513         1.848974        -0.242439
 H        -3.282475        -0.957004        -0.539391
 H        -3.625618         1.347143        -0.749471
 H        -3.048071        -1.840560         1.815669
 H        -2.728875        -0.187010         2.428060
 H        -5.425192        -0.809258         1.003528
 H        -5.070448        -1.305531         2.593659
 H        -6.297677         0.885904         1.827071
