19
Iteration:  3715charge 0 multiplicity 1
 C         1.288590         0.425132         0.493059
 C        -0.086868         0.113608        -0.003634
 C        -1.339823         0.003797        -0.005327
 C        -2.785503        -0.206617         0.159370
 O        -3.522820        -0.085463        -1.064762
 C        -3.347609         0.754618         1.179645
 C        -4.804132         0.689638         1.281066
 C        -5.280589         0.613334         2.713823
 O        -4.523455         0.604289         3.681811
 H         1.899567         0.866545        -0.335285
 H         1.161634         1.082427         1.390302
 H         1.676272        -0.557756         0.839873
 H        -2.975564        -1.288582         0.541150
 H        -2.768457        -0.117254        -1.688388
 H        -2.806093         0.613615         2.189858
 H        -3.184280         1.811777         0.814040
 H        -5.325232         1.651051         1.164397
 H        -5.277210        -0.058093         0.659667
 H        -6.385619         0.691437         2.903708
