19
Iteration:    56charge 0 multiplicity 1
 C         1.609411        -0.057063        -0.105421
 C         0.065883         0.063111         0.121869
 C        -1.176278         0.011911         0.006936
 C        -2.672280         0.049100        -0.119532
 O        -2.954829         1.381999        -0.625104
 C        -3.389733        -0.107451         1.274980
 C        -4.824325         0.307446         1.427320
 C        -5.085887         0.716421         2.860359
 O        -5.910787         0.390592         3.664373
 H         2.204368         0.240989         0.784741
 H         1.866395        -1.053153        -0.290303
 H         2.003826         0.520986        -0.953624
 H        -3.018996        -0.647908        -0.790892
 H        -3.429169         1.375452        -1.475443
 H        -3.352984        -1.161212         1.342335
 H        -2.711089         0.436380         1.941960
 H        -5.199751         1.085083         0.812678
 H        -5.407496        -0.611470         1.265440
 H        -4.453002         1.410651         3.328765
