19
Iteration:  3061charge 0 multiplicity 1
 C         1.110128         0.620721        -0.157117
 C        -0.226164         0.165419         0.004086
 C        -1.347268        -0.235270         0.039680
 C        -2.780530        -0.300934         0.252605
 O        -3.214462         1.069533        -0.154690
 C        -3.161668        -0.689529         1.697069
 C        -4.741744        -0.525940         1.961207
 C        -5.326948         0.838375         2.150881
 O        -4.696759         1.677759         2.731856
 H         1.710474         0.261492         0.596787
 H         1.466136         0.225750        -1.093917
 H         1.161632         1.671222        -0.327826
 H        -3.259024        -0.849688        -0.565367
 H        -3.323941         1.062682        -1.134548
 H        -2.902176        -1.760609         1.754278
 H        -2.586635        -0.191031         2.504491
 H        -5.424233        -1.027764         1.140046
 H        -5.133264        -1.063028         2.919638
 H        -6.428519         1.029396         1.764855
