19
Iteration:  4160
 C         1.396487         0.502173        -0.511719
 C        -0.032616         0.368114        -0.237793
 C        -1.053547         0.094767         0.401966
 C        -2.509360        -0.139235         0.823562
 O        -3.260846        -0.563888        -0.305578
 C        -3.210448         1.140839         1.526112
 C        -4.735319         1.339274         1.363032
 C        -5.628832         0.560086         2.284884
 O        -5.288027        -0.183756         3.198724
 H         1.708151         1.262817         0.239482
 H         1.977284        -0.372804        -0.388950
 H         1.603852         0.840481        -1.560750
 H        -2.693526        -0.982879         1.552227
 H        -2.910005        -0.062900        -1.050883
 H        -3.123251         1.112207         2.618617
 H        -2.605878         1.975769         1.242467
 H        -5.173511         2.326920         1.155219
 H        -5.131400         0.661415         0.483909
 H        -6.597517         0.490752         1.806799
