19
Iteration:  4860
 C         1.288593         0.262577         0.500735
 C        -0.217697         0.373793         0.462998
 C        -1.374064        -0.007317         0.197039
 C        -2.853802        -0.048351         0.249929
 O        -3.626685        -0.239022        -1.039622
 C        -3.458135         1.226373         0.830341
 C        -4.856934         0.912845         1.288316
 C        -5.007655         0.183553         2.574822
 O        -4.252386         0.284953         3.506427
 H         1.751075        -0.451569        -0.195567
 H         1.671169         1.247658         0.330407
 H         1.589275         0.113907         1.535831
 H        -3.181705        -0.970388         0.742744
 H        -3.636626         0.642183        -1.471483
 H        -2.962057         1.591187         1.764885
 H        -3.556624         2.064268         0.152413
 H        -5.481837         1.822193         1.455210
 H        -5.349539         0.471370         0.445937
 H        -6.007459        -0.405951         2.693688
