19
Iteration:  1054charge 0 multiplicity 1
 C         1.467361        -0.141542        -0.404752
 C         0.059791        -0.006669        -0.116084
 C        -1.208907        -0.116282        -0.026274
 C        -2.573182         0.114782         0.150920
 O        -2.920412         1.363998        -0.551820
 C        -3.039638         0.270037         1.590501
 C        -4.532942         0.496625         1.616870
 C        -5.273310         0.122302         2.911520
 O        -6.323499         0.575698         3.335892
 H         1.949020        -0.681503         0.409245
 H         1.620535        -0.721927        -1.371294
 H         1.951200         0.851224        -0.484180
 H        -3.151355        -0.722731        -0.240404
 H        -2.502346         1.313297        -1.439833
 H        -2.561730        -0.545768         2.187462
 H        -2.562466         1.206204         1.877468
 H        -4.941968         1.517948         1.503763
 H        -5.095023         0.039815         0.810076
 H        -4.636294        -0.403087         3.711426
