19
Iteration:  3890
 C         1.249917         0.059355         0.398880
 C        -0.203498         0.338128         0.491518
 C        -1.394748         0.288395         0.405700
 C        -2.901802         0.246528         0.408080
 O        -3.454420        -0.579517        -0.739892
 C        -3.720322         1.478931         0.663036
 C        -5.089488         1.034039         1.207817
 C        -5.003374         0.396903         2.652772
 O        -3.957242        -0.030668         3.159854
 H         1.749345         0.912451        -0.064287
 H         1.705632        -0.213529         1.349450
 H         1.335059        -0.835057        -0.227314
 H        -3.210979        -0.436315         1.155672
 H        -3.093118        -0.059858        -1.494788
 H        -3.045912         2.041351         1.370847
 H        -3.868922         1.915788        -0.352179
 H        -5.964305         1.763544         1.201959
 H        -5.237032         0.066174         0.573284
 H        -5.998978         0.198181         3.211885
