19
Iteration:  2999charge 0 multiplicity 1
 C         1.302465         0.247147         0.089766
 C        -0.145627         0.100818        -0.009100
 C        -1.343693         0.189809        -0.118314
 C        -2.822809        -0.115586         0.149195
 O        -3.673394         0.748274        -0.543369
 C        -3.025382        -0.299763         1.616984
 C        -4.515704        -0.496767         1.852022
 C        -5.263943         0.805328         2.239841
 O        -4.858189         1.579924         3.088530
 H         1.957710         0.109014         1.011722
 H         1.690007        -0.487836        -0.743028
 H         1.629842         1.283839        -0.298548
 H        -3.052834        -1.133536        -0.159138
 H        -3.795049         1.582632        -0.018120
 H        -2.575496        -1.266678         1.915634
 H        -2.548452         0.522318         2.164098
 H        -4.904020        -0.995034         1.003629
 H        -4.761249        -1.036019         2.714770
 H        -6.371433         0.781249         2.000915
