19
Iteration:  4198
 C         1.264273         0.284645        -0.538725
 C        -0.101104         0.490084        -0.028389
 C        -1.239342         0.472497         0.371720
 C        -2.496848        -0.051852         0.798464
 O        -3.279118        -0.684540        -0.188946
 C        -3.205627         1.100822         1.568181
 C        -4.651503         1.257021         1.321904
 C        -5.545308         0.500695         2.148629
 O        -5.145809        -0.172160         3.072775
 H         1.915736         0.822425         0.158158
 H         1.572585        -0.808157        -0.471757
 H         1.439824         0.868242        -1.412974
 H        -2.070447        -0.795190         1.448555
 H        -3.264635        -0.072080        -0.935759
 H        -2.975561         0.742733         2.571239
 H        -2.672557         2.067741         1.325029
 H        -4.951165         2.336325         1.564828
 H        -4.888555         1.203858         0.291052
 H        -6.613493         0.378020         1.806094
