19
Iteration:  3220
 C         1.325971         0.304910        -0.418051
 C        -0.053830         0.052293         0.047184
 C        -1.254844         0.214024         0.273925
 C        -2.707745        -0.104069         0.340008
 O        -3.523155         1.041523        -0.094704
 C        -3.125720        -0.602519         1.712832
 C        -4.733481        -0.562479         1.751901
 C        -5.451156         0.732357         2.175873
 O        -4.843737         1.611725         2.748551
 H         1.916098        -0.644259        -0.331877
 H         1.330320         0.454467        -1.486012
 H         1.869894         1.121932         0.111331
 H        -3.067645        -0.797907        -0.492313
 H        -3.171114         1.958474        -0.118772
 H        -2.760980        -1.613393         1.763111
 H        -2.507771        -0.012629         2.387082
 H        -5.069127        -0.979317         0.737299
 H        -5.107922        -1.369162         2.555200
 H        -6.559199         0.806505         1.987625
