19
Iteration:  2403
 C         1.049977         0.500719         0.538602
 C        -0.304009         0.291839         0.064323
 C        -1.492744         0.099823        -0.011919
 C        -2.924330        -0.241451        -0.027069
 O        -3.676497         0.982317        -0.460389
 C        -3.323748        -0.807903         1.280328
 C        -4.789702        -0.448459         1.608482
 C        -4.868100         1.035306         2.178010
 O        -4.124682         1.328711         3.110788
 H         1.615462         1.341228         0.207685
 H         1.231031         0.278626         1.633618
 H         1.630108        -0.368462         0.143115
 H        -3.146523        -1.001547        -0.839817
 H        -3.201164         1.649677         0.041462
 H        -3.276941        -1.899507         1.451190
 H        -2.788891        -0.411725         2.177553
 H        -5.582876        -0.564540         0.840846
 H        -4.977380        -0.959782         2.500159
 H        -5.842531         1.581806         2.025338
