19
Iteration:  3438charge 0 multiplicity 1
 C         1.454785        -0.070902        -0.315352
 C         0.020452        -0.067306         0.133071
 C        -1.155165         0.081265         0.022249
 C        -2.672812         0.172033         0.031219
 O        -3.473129         1.130253        -0.450378
 C        -3.093589         0.063422         1.582296
 C        -4.582013        -0.417934         1.704767
 C        -5.374536         0.308198         2.775633
 O        -5.416532         1.493136         3.002972
 H         1.675136        -0.869671        -1.060088
 H         1.843593         0.944785        -0.662730
 H         1.958244        -0.277703         0.686084
 H        -3.016745        -0.707448        -0.437042
 H        -3.129364         1.928965        -0.867737
 H        -2.434080        -0.731866         2.067458
 H        -2.998182         0.993311         2.207991
 H        -5.084284        -0.566115         0.704579
 H        -4.729810        -1.367963         2.110218
 H        -6.038790        -0.355872         3.372818
