19
Iteration:  3137charge 0 multiplicity 1
 C         1.120798         0.750920        -0.453178
 C        -0.217993         0.198510        -0.137889
 C        -1.257582        -0.309041         0.252357
 C        -2.698625        -0.345184         0.489600
 O        -3.156542         1.117835         0.206844
 C        -3.410607        -0.910523         1.816084
 C        -4.923448        -0.631518         1.762749
 C        -5.296213         0.853963         2.062703
 O        -4.602087         1.775601         2.457386
 H         1.945564         0.264839         0.153606
 H         1.276160         0.822807        -1.519205
 H         1.022191         1.806735        -0.156970
 H        -3.194345        -0.865540        -0.420359
 H        -2.384895         1.657174        -0.027973
 H        -3.262616        -2.033415         1.997023
 H        -3.019035        -0.414365         2.747215
 H        -5.238532        -0.733569         0.691871
 H        -5.430744        -1.357313         2.473039
 H        -6.359312         1.057576         2.096918
