19
Iteration:  4855charge 0 multiplicity 1
 C         1.240327         0.267209         0.474208
 C        -0.198881         0.386215         0.467511
 C        -1.343410        -0.035035         0.227357
 C        -2.897400        -0.022496         0.256670
 O        -3.594842        -0.223626        -1.070649
 C        -3.430859         1.185645         0.838357
 C        -4.899295         0.912053         1.330697
 C        -5.016101         0.183853         2.569244
 O        -4.252474         0.295946         3.515453
 H         1.763947        -0.532090        -0.078939
 H         1.596827         1.317033         0.267920
 H         1.677763         0.028574         1.526383
 H        -3.142710        -0.999303         0.752836
 H        -3.506092         0.629147        -1.558569
 H        -2.798637         1.713774         1.564490
 H        -3.647076         1.982314         0.080982
 H        -5.444236         1.860748         1.436768
 H        -5.513278         0.520355         0.455626
 H        -5.869343        -0.504435         2.642461
