19
Iteration:  2773charge 0 multiplicity 1
 C         1.406015        -0.156603        -0.287391
 C         0.024286        -0.070774         0.149549
 C        -1.164437         0.029369         0.201508
 C        -2.647579         0.161105         0.112972
 O        -3.090137         0.630761        -1.172767
 C        -3.496188         0.793739         1.252087
 C        -4.583297        -0.041358         1.758645
 C        -5.229688         0.188321         3.107392
 O        -5.586211         1.250945         3.522961
 H         2.137042         0.588448         0.188953
 H         1.985501        -1.180290        -0.268251
 H         1.449902         0.097129        -1.365258
 H        -2.803835        -0.930262        -0.080416
 H        -2.927718         1.567199        -1.052137
 H        -2.775562         0.773650         2.101987
 H        -3.771654         1.776461         0.857122
 H        -5.490826        -0.077688         1.172020
 H        -4.302265        -1.079473         1.758604
 H        -5.408936        -0.721959         3.721466
