19
Iteration:  4764charge 0 multiplicity 1
 C         1.212351         0.281959         0.232968
 C        -0.233700         0.128329         0.471248
 C        -1.423409        -0.131748         0.485189
 C        -2.877811        -0.092145         0.203727
 O        -3.137371         0.130076        -1.182240
 C        -3.666327         1.199277         0.659225
 C        -4.975294         0.892713         1.396557
 C        -5.064905         0.218115         2.760377
 O        -4.304043         0.313515         3.696286
 H         1.713588        -0.638022        -0.057050
 H         1.276425         1.089380        -0.581925
 H         1.546661         0.701770         1.134089
 H        -3.418715        -0.972947         0.637569
 H        -2.589896        -0.551409        -1.668651
 H        -3.017729         1.769294         1.310474
 H        -3.925560         1.737053        -0.243222
 H        -5.675283         1.750030         1.356795
 H        -5.527845         0.303340         0.712686
 H        -5.946378        -0.526313         2.850925
