19
Iteration:   293charge 0 multiplicity 1
 C         1.469628        -0.239261        -0.222313
 C         0.063808         0.084447        -0.176824
 C        -1.143874         0.219903        -0.157426
 C        -2.613932         0.080594         0.050355
 O        -3.074618         1.336205        -0.501493
 C        -3.075040         0.000783         1.482544
 C        -4.562649         0.143001         1.669905
 C        -5.107863         0.735527         2.997175
 O        -6.270555         0.404555         3.310284
 H         2.003180         0.157841         0.659949
 H         1.538802        -1.405115        -0.133521
 H         2.028105         0.154863        -1.103110
 H        -2.903284        -0.692896        -0.647942
 H        -2.358556         1.677781        -1.027350
 H        -2.858886        -1.066737         2.003086
 H        -2.771155         0.894476         1.993662
 H        -4.835092         1.052766         1.054249
 H        -5.159215        -0.656763         1.329761
 H        -4.566860         1.490107         3.387331
