19
Iteration:  3308
 C         1.310224        -0.046651         0.055681
 C        -0.150611        -0.154353        -0.007766
 C        -1.333319         0.128421        -0.107345
 C        -2.778379         0.159218        -0.061622
 O        -3.629421         1.312869        -0.468472
 C        -2.925226        -0.041376         1.521792
 C        -4.329875        -0.650750         2.015843
 C        -5.368246         0.421603         2.434788
 O        -5.108731         1.485319         2.966050
 H         1.904901        -0.906671         0.249564
 H         1.616149         0.572063        -0.708008
 H         1.458146         0.423672         1.021804
 H        -3.409180        -0.540654        -0.755016
 H        -3.707779         2.084261         0.142604
 H        -2.342836        -0.880796         1.883732
 H        -2.634035         0.860527         2.087041
 H        -4.808566        -1.239856         1.158961
 H        -3.964425        -1.368745         2.846993
 H        -6.415446         0.222745         2.050421
