19
Iteration:   402charge 0 multiplicity 1
 C         1.459232        -0.214816        -0.543281
 C         0.084156        -0.093639        -0.007540
 C        -1.111921        -0.164582         0.098199
 C        -2.539129         0.167789         0.212926
 O        -2.813862         1.346323        -0.758256
 C        -3.159019         0.531459         1.604734
 C        -4.719953         0.600949         1.599370
 C        -5.324932         0.622744         3.023529
 O        -6.251983        -0.052697         3.358291
 H         2.193611         0.239419         0.062737
 H         1.733219        -1.298947        -0.650964
 H         1.519800         0.170429        -1.553493
 H        -3.092030        -0.820421        -0.062399
 H        -1.935505         1.238356        -1.222971
 H        -2.713537        -0.257431         2.400028
 H        -2.606836         1.450626         1.913703
 H        -5.044123         1.541093         1.120970
 H        -5.274326        -0.196314         1.082406
 H        -5.026031         1.573777         3.634411
