19
Iteration:  1070charge 0 multiplicity 1
 C         1.385888        -0.154453        -0.423988
 C         0.045439         0.082050        -0.029446
 C        -1.215080        -0.020931         0.143684
 C        -2.674641         0.071899         0.054923
 O        -2.846130         1.348890        -0.617788
 C        -3.080392         0.253122         1.575334
 C        -4.611244         0.504490         1.651985
 C        -5.164678         0.125864         2.951764
 O        -6.226765         0.586179         3.301334
 H         1.963571        -0.847466         0.252163
 H         1.363356        -0.714861        -1.330821
 H         2.001953         0.745669        -0.555270
 H        -3.181576        -0.775668        -0.469110
 H        -2.338611         1.193075        -1.410737
 H        -2.984178        -0.701209         2.089827
 H        -2.508948         1.128727         1.981699
 H        -4.647604         1.523189         1.275413
 H        -4.978721        -0.254039         0.936718
 H        -4.785636        -0.833650         3.387758
