19
Iteration:   362charge 0 multiplicity 1
 C         1.397006        -0.120122        -0.456236
 C         0.007717        -0.242340        -0.143469
 C        -1.164762         0.001499         0.160099
 C        -2.573369         0.114478         0.161900
 O        -2.738031         1.360142        -0.593539
 C        -3.130082         0.400301         1.548790
 C        -4.648245         0.437266         1.563221
 C        -5.233439         0.578979         2.974422
 O        -6.259110         0.159703         3.348896
 H         1.900981         0.526161         0.390105
 H         1.848898        -1.072677        -0.446120
 H         1.554263         0.445147        -1.449123
 H        -3.161706        -0.610627        -0.322807
 H        -2.862791         1.221207        -1.526707
 H        -2.808307        -0.444695         2.138770
 H        -2.728679         1.354613         1.804724
 H        -5.108221         1.154158         0.838052
 H        -4.974461        -0.542967         1.180906
 H        -4.595821         1.354032         3.786616
