19
Iteration:  1682charge 0 multiplicity 1
 C         1.342217         0.168436         0.349726
 C        -0.028329         0.030128         0.098060
 C        -1.245131        -0.118341        -0.061185
 C        -2.698715        -0.056582        -0.140863
 O        -3.142645         1.122400        -0.934981
 C        -3.334384         0.194532         1.385322
 C        -4.861052         0.339325         1.303050
 C        -5.425264         0.702665         2.726856
 O        -5.012874         0.329233         3.778786
 H         1.986468        -0.573162        -0.007779
 H         1.809120         1.118541        -0.055455
 H         1.509205         0.149666         1.399641
 H        -3.102784        -0.867719        -0.665687
 H        -3.175044         1.012294        -1.920747
 H        -3.090427        -0.716104         1.861300
 H        -2.899234         1.070969         1.830690
 H        -5.030618         1.076490         0.526576
 H        -5.389243        -0.545963         1.082590
 H        -6.122848         1.668439         2.700049
