19
Iteration:  2802charge 0 multiplicity 1
 C         1.386155         0.004942        -0.238482
 C        -0.093215        -0.069432        -0.085367
 C        -1.263990        -0.185051         0.212058
 C        -2.700852         0.020357         0.127737
 O        -2.907247         0.710816        -1.173566
 C        -3.393706         0.812798         1.307904
 C        -4.598049        -0.111508         1.804762
 C        -5.275859         0.203597         3.136030
 O        -5.625436         1.306030         3.530331
 H         1.911290         0.623143         0.459414
 H         1.918933        -0.919444        -0.319264
 H         1.647900         0.194719        -1.279132
 H        -3.169653        -0.931055        -0.079899
 H        -2.210628         1.401529        -1.248090
 H        -2.647341         1.083918         2.065585
 H        -3.738499         1.803880         0.912752
 H        -5.422126        -0.116032         0.983236
 H        -4.173225        -1.209411         1.803239
 H        -5.342782        -0.545150         3.990863
