19
Iteration:  3173charge 0 multiplicity 1
 C         1.095102         0.544049        -0.531380
 C        -0.194166         0.262600         0.050357
 C        -1.288003        -0.138631         0.450425
 C        -2.679744        -0.260620         0.339768
 O        -3.162923         1.089700         0.000396
 C        -3.347586        -0.708649         1.778868
 C        -4.830713        -0.580314         1.766549
 C        -5.372541         0.815177         2.052913
 O        -4.623189         1.617383         2.592852
 H         1.840420        -0.132637        -0.317022
 H         1.104544         0.547006        -1.638211
 H         1.457228         1.483003        -0.181539
 H        -3.081984        -0.976905        -0.523599
 H        -3.342047         1.537997         0.853739
 H        -3.006053        -1.743120         1.899915
 H        -2.923487        -0.112671         2.625688
 H        -5.383005        -0.947139         0.778717
 H        -5.243510        -1.377145         2.539421
 H        -6.418105         0.994150         1.753526
