19
Iteration:  1168charge 0 multiplicity 1
 C         1.483691        -0.148318        -0.132135
 C        -0.012182        -0.013798        -0.206488
 C        -1.199084        -0.013976        -0.018093
 C        -2.622401         0.222811         0.008844
 O        -3.020598         1.358087        -0.704214
 C        -3.082871         0.240403         1.557732
 C        -4.624372         0.206371         1.587381
 C        -5.343629        -0.035727         2.849930
 O        -5.899902         0.857679         3.439531
 H         1.784966        -0.970103         0.591268
 H         1.920033        -0.450340        -1.096730
 H         2.001453         0.771333         0.209189
 H        -3.221777        -0.517625        -0.493901
 H        -2.748737         2.103430        -0.137513
 H        -2.892900        -0.748350         2.052432
 H        -2.766532         1.118018         2.199687
 H        -5.069953         1.244540         1.218511
 H        -4.929431        -0.644265         0.970719
 H        -5.566112        -1.081133         3.123977
