19
Iteration:  4466charge 0 multiplicity 1
 C         1.264445         0.266402        -0.271048
 C        -0.135851         0.457898        -0.030999
 C        -1.216302         0.235612         0.503258
 C        -2.609751        -0.065846         0.612055
 O        -3.265374        -0.386134        -0.662775
 C        -3.233741         1.230837         1.255615
 C        -4.791353         1.372874         1.427936
 C        -5.454684         0.511807         2.562014
 O        -4.940871        -0.404403         3.159657
 H         1.731346         0.129853         0.732521
 H         1.620978        -0.540395        -0.888364
 H         1.617241         1.202806        -0.794783
 H        -2.808264        -0.891722         1.325752
 H        -3.070279        -1.358356        -0.796947
 H        -2.597422         1.234551         2.151913
 H        -2.854472         2.147581         0.826499
 H        -5.158399         2.415022         1.640730
 H        -5.458065         1.038849         0.558890
 H        -6.597761         0.843726         2.760822
