19
Iteration:  3980charge 0 multiplicity 1
 C         1.304506         0.456172         0.332993
 C        -0.132782         0.226560         0.164053
 C        -1.341085         0.191699         0.142037
 C        -2.751096        -0.003643         0.476561
 O        -3.602087        -0.569654        -0.635212
 C        -3.342258         1.387794         0.788695
 C        -4.789926         1.232003         1.295044
 C        -5.203390         0.423251         2.576611
 O        -4.514168        -0.198132         3.369209
 H         1.566670         1.491505         0.340631
 H         1.572883        -0.031824         1.315651
 H         1.894859        -0.089962        -0.360837
 H        -2.835518        -0.591923         1.389764
 H        -3.175618        -0.991274        -1.410845
 H        -2.752875         1.761450         1.631949
 H        -3.363614         2.038710        -0.125976
 H        -5.262604         2.222740         1.437455
 H        -5.399234         0.909780         0.394185
 H        -6.309567         0.282489         2.511562
