19
Iteration:  3069charge 0 multiplicity 1
 C         1.120784         0.651648        -0.219041
 C        -0.213171         0.155372         0.027913
 C        -1.347422        -0.323717         0.094373
 C        -2.800163        -0.300595         0.219254
 O        -3.203965         1.082740        -0.045744
 C        -3.247489        -0.688551         1.690885
 C        -4.707969        -0.575329         1.928451
 C        -5.300083         0.842522         2.150069
 O        -4.703360         1.760940         2.693320
 H         1.884337         0.430512         0.621419
 H         1.449566         0.372100        -1.209335
 H         0.915025         1.753040        -0.247907
 H        -3.381592        -1.043242        -0.465545
 H        -3.478417         0.987831        -0.992064
 H        -3.012235        -1.754663         1.540075
 H        -2.485338        -0.364137         2.405780
 H        -5.022629        -0.981743         0.984384
 H        -5.055755        -1.230346         2.709662
 H        -6.340306         0.987638         1.767666
