19
Iteration:   849charge 0 multiplicity 1
 C         1.330188        -0.272093        -0.186927
 C        -0.086298        -0.117069        -0.058881
 C        -1.294476        -0.203649        -0.087829
 C        -2.545743         0.262339         0.082607
 O        -2.820273         1.568080        -0.493175
 C        -3.162767         0.320037         1.504591
 C        -4.720257         0.327635         1.455555
 C        -5.254428         0.772211         2.764045
 O        -5.869641         0.018541         3.476700
 H         1.863868        -0.267344         0.772212
 H         1.677692        -1.120834        -0.733421
 H         1.782590         0.560598        -0.759122
 H        -3.210446        -0.374489        -0.481171
 H        -2.327427         1.794015        -1.263388
 H        -2.823929        -0.601522         1.914745
 H        -2.596386         0.995407         2.198740
 H        -4.972675         1.148029         0.737777
 H        -5.185146        -0.683398         1.392294
 H        -5.390034         1.834962         2.992596
