19
Iteration:  2165charge 0 multiplicity 1
 C         1.446130         0.304231        -0.361447
 C        -0.036855         0.198050        -0.031264
 C        -1.151007        -0.133337         0.289407
 C        -2.631517        -0.140020         0.313290
 O        -3.043171         1.075698        -0.314372
 C        -3.391587        -0.406986         1.631872
 C        -4.982869        -0.344427         1.477937
 C        -5.580599         0.644349         2.397347
 O        -4.978165         1.477744         3.065430
 H         1.287999         0.676243        -1.409467
 H         1.849619         1.071380         0.271362
 H         1.971790        -0.682447        -0.204168
 H        -3.057250        -0.972702        -0.355851
 H        -2.936190         1.820215         0.305223
 H        -3.296114        -1.492987         1.807172
 H        -2.879101        -0.002819         2.541150
 H        -5.463716         0.037400         0.550357
 H        -5.515302        -1.374929         1.519028
 H        -6.671812         0.388790         2.529190
