19
Iteration:  1829charge 0 multiplicity 1
 C         1.117158         0.138075         0.740273
 C        -0.168834        -0.062274         0.348369
 C        -1.322938        -0.150871        -0.023759
 C        -2.815085         0.070821        -0.191409
 O        -3.171323         0.908308        -1.396802
 C        -3.566938         0.429037         1.226511
 C        -5.016530         0.527997         1.306724
 C        -5.234162         0.561879         2.842217
 O        -4.347786         0.266615         3.633692
 H         1.859462        -0.299190        -0.010240
 H         1.358270         1.156170         0.858536
 H         1.428033        -0.101925         1.805200
 H        -3.339879        -0.890685        -0.321422
 H        -2.510202         1.562104        -1.171441
 H        -3.056768        -0.400315         1.802262
 H        -3.189786         1.437717         1.481317
 H        -5.407874         1.459013         0.849158
 H        -5.588047        -0.271999         0.898393
 H        -6.144008         1.102237         3.187035
