19
Iteration:   633charge 0 multiplicity 1
 C         1.209666        -0.505911         0.355076
 C        -0.124522        -0.143504         0.027877
 C        -1.325062         0.061946        -0.167937
 C        -2.725275         0.461593        -0.254755
 O        -2.953254         1.686913        -1.079137
 C        -3.181432         0.425280         1.263767
 C        -4.647618         0.389723         1.581169
 C        -4.999028         0.599119         3.069463
 O        -5.700138        -0.235538         3.640301
 H         1.418749        -0.204595         1.418423
 H         1.249062        -1.553244         0.290467
 H         1.977695        -0.112221        -0.357474
 H        -3.466780        -0.191763        -0.584672
 H        -2.100470         1.942486        -1.535733
 H        -2.715625        -0.368595         1.833794
 H        -2.708980         1.307213         1.583220
 H        -4.989382         1.350213         1.100634
 H        -5.200498        -0.622851         1.329350
 H        -4.516498         1.516263         3.613246
