19
Iteration:  2669charge 0 multiplicity 1
 C         1.430061        -0.085167         0.143938
 C        -0.063606         0.050975        -0.002805
 C        -1.235159         0.302094        -0.185813
 C        -2.712893         0.036367         0.030767
 O        -3.572362         0.724029        -0.869355
 C        -3.088545         0.291065         1.488604
 C        -4.544031        -0.171017         1.671275
 C        -5.481329         0.376004         2.730040
 O        -5.089217         1.289750         3.456867
 H         2.020854         0.775448         0.437486
 H         1.716742        -0.875555         0.772147
 H         1.703637        -0.278223        -0.905525
 H        -2.864672        -1.012590        -0.345469
 H        -3.241925         1.594719        -1.105828
 H        -2.282881        -0.057414         2.245149
 H        -2.989293         1.440285         1.659480
 H        -5.029162        -0.174116         0.612731
 H        -4.645047        -1.273664         2.100957
 H        -6.476065        -0.189066         2.785855
