19
Iteration:   733charge 0 multiplicity 1
 C         1.281098        -0.576252         0.210617
 C        -0.100664        -0.078467         0.171559
 C        -1.240023         0.288097        -0.183762
 C        -2.647442         0.304674        -0.165929
 O        -3.144223         1.627681        -0.671223
 C        -3.252287         0.160687         1.254856
 C        -4.745140         0.398929         1.367457
 C        -5.124970         0.677790         2.756515
 O        -5.469768        -0.037079         3.678165
 H         1.745964        -0.589997         1.249481
 H         1.248865        -1.584121        -0.144289
 H         1.936222        -0.027889        -0.503658
 H        -3.047745        -0.486839        -0.737423
 H        -2.342431         2.153346        -0.722421
 H        -2.909013        -0.844453         1.701600
 H        -2.726435         0.978935         1.724453
 H        -4.884936         1.278195         0.647880
 H        -5.228222        -0.563344         0.919546
 H        -5.039584         1.883078         3.001377
