19
Iteration:   796
 C         1.395407        -0.322663        -0.008036
 C        -0.060952        -0.298949        -0.057113
 C        -1.239311         0.004124        -0.032472
 C        -2.586906         0.332674        -0.011392
 O        -2.818761         1.671419        -0.539937
 C        -3.351863         0.261101         1.295751
 C        -4.938620         0.319255         1.291288
 C        -5.286984         0.725646         2.763375
 O        -5.590133         0.002868         3.716078
 H         1.778781        -0.247915         1.080032
 H         1.783094        -1.231563        -0.421478
 H         1.908712         0.468513        -0.651667
 H        -3.073345        -0.364361        -0.851388
 H        -2.629045         1.740630        -1.464153
 H        -3.077237        -0.602757         1.845533
 H        -2.855754         0.899319         2.102420
 H        -5.273340         0.937174         0.507603
 H        -5.326750        -0.740722         1.362128
 H        -4.880521         1.848536         2.966465
