19
Iteration:  1547
 C         1.474153        -0.262555        -0.376513
 C         0.152099         0.054340         0.031433
 C        -1.077907         0.195981         0.211492
 C        -2.526661         0.258769         0.246124
 O        -3.096310         0.983762        -0.793511
 C        -3.242261         0.568864         1.672591
 C        -4.737607         0.334780         1.436391
 C        -5.667812         0.095477         2.543091
 O        -5.609162         0.611348         3.618830
 H         1.498627        -1.408015        -0.620676
 H         1.667303         0.411599        -1.216049
 H         2.240387        -0.088402         0.474417
 H        -2.728636        -0.827655        -0.156959
 H        -2.896920         1.928521        -0.822584
 H        -2.758712        -0.362018         2.218658
 H        -2.926529         1.652783         1.897057
 H        -5.068067         1.286986         0.911584
 H        -4.919103        -0.453226         0.701713
 H        -6.327650        -0.851694         2.422435
