19
Iteration:  1963
 C         1.419612        -0.333276         0.204014
 C         0.044817         0.142659         0.153162
 C        -1.152171         0.189872        -0.022961
 C        -2.668443         0.255003         0.051836
 O        -3.246190         0.870161        -1.069878
 C        -3.361573         0.621696         1.405889
 C        -4.823337         0.113163         1.428178
 C        -5.558043         0.177826         2.725480
 O        -5.060539         0.851886         3.638404
 H         1.716806        -0.645261        -0.799211
 H         2.083667         0.522525         0.397037
 H         1.431337        -1.247813         0.783802
 H        -2.896182        -0.784935        -0.242801
 H        -2.956611         1.799553        -1.112220
 H        -2.788386        -0.015597         2.100447
 H        -3.101500         1.654255         1.675287
 H        -5.491453         0.572953         0.714265
 H        -4.737531        -0.951122         1.166447
 H        -6.170858        -0.692668         3.046051
