19
Iteration:  4579charge 0 multiplicity 1
 C         1.337312         0.434335         0.119581
 C        -0.144799         0.277816         0.087257
 C        -1.244288        -0.164668         0.348123
 C        -2.814567        -0.147343         0.382533
 O        -3.422807        -0.111306        -0.989263
 C        -3.352789         1.072073         1.219305
 C        -4.941142         1.083099         1.302221
 C        -5.268428         0.291639         2.531222
 O        -4.548128         0.174446         3.531957
 H         1.625614        -0.248471         0.932656
 H         1.832165        -0.147267        -0.738026
 H         1.785218         1.379418         0.292093
 H        -3.195587        -1.061489         0.834858
 H        -3.201855         0.825162        -1.257858
 H        -3.226202         0.971066         2.288578
 H        -2.998740         2.044216         0.861126
 H        -5.316820         2.069946         1.586198
 H        -5.338858         0.801110         0.231289
 H        -6.278707        -0.108490         2.576255
