19
Iteration:  1929
 C         1.319842        -0.221346         0.418853
 C        -0.075658        -0.035872         0.046531
 C        -1.251837         0.225586         0.050729
 C        -2.608405         0.200562        -0.149059
 O        -3.183788         0.927485        -1.249860
 C        -3.393545         0.603725         1.145713
 C        -4.755150         0.060189         1.421925
 C        -5.499673         0.347106         2.873280
 O        -4.986414         0.673568         3.931702
 H         1.940821        -0.596198        -0.417679
 H         1.796246         0.680158         0.786956
 H         1.544192        -0.877303         1.301415
 H        -2.936985        -0.830817        -0.297927
 H        -2.723723         1.790441        -1.410895
 H        -2.607884         0.389538         1.908876
 H        -3.326191         1.710698         1.107517
 H        -5.282104         0.723135         0.722547
 H        -4.947176        -0.936070         1.002380
 H        -6.565455        -0.076097         2.867159
