19
Iteration:  1503charge 0 multiplicity 1
 C         1.513870        -0.300427        -0.260110
 C         0.139688         0.066536        -0.127119
 C        -1.053104         0.313465         0.165793
 C        -2.482545         0.243337         0.154779
 O        -3.096027         1.148618        -0.740640
 C        -3.162671         0.401712         1.547761
 C        -4.690353         0.340421         1.470117
 C        -5.621237        -0.030366         2.700531
 O        -5.814757         0.723675         3.666544
 H         1.551724        -1.442611        -0.465763
 H         1.778480         0.143355        -1.211351
 H         2.280563         0.031326         0.524296
 H        -2.803855        -0.787838        -0.316018
 H        -2.838088         0.706865        -1.555696
 H        -2.765058        -0.468191         2.290138
 H        -2.982491         1.423226         2.046758
 H        -5.215006         1.195677         0.976156
 H        -4.974326        -0.511741         0.875342
 H        -6.205363        -0.887007         2.393917
