19
Iteration:  3597charge 0 multiplicity 1
 C         1.376290         0.462356        -0.156573
 C        -0.084863         0.217185        -0.117315
 C        -1.201313        -0.273117         0.146717
 C        -2.677216        -0.358704         0.245837
 O        -3.105384         0.438590        -0.867211
 C        -3.248035         0.202093         1.472936
 C        -4.905399         0.263824         1.398799
 C        -5.482310         0.869034         2.603922
 O        -5.102200         0.928540         3.768634
 H         1.788196         0.519652        -1.175005
 H         1.585332         1.489710         0.255626
 H         2.003861        -0.202690         0.429172
 H        -3.092954        -1.395003         0.096552
 H        -2.336969         0.772255        -1.351003
 H        -3.098619        -0.282132         2.429541
 H        -2.903743         1.244243         1.516991
 H        -5.170052         0.763745         0.433290
 H        -5.223716        -0.822915         1.527813
 H        -6.561700         1.188117         2.467745
