19
Iteration:  3999charge 0 multiplicity 1
 C         1.307072         0.549027         0.188139
 C        -0.083507         0.235380         0.311117
 C        -1.332444         0.026565         0.171010
 C        -2.756610        -0.060004         0.510153
 O        -3.633530        -0.423594        -0.634140
 C        -3.273311         1.272889         0.949941
 C        -4.732121         1.180572         1.278184
 C        -5.225936         0.451240         2.484158
 O        -4.604081        -0.152363         3.319275
 H         1.342956         1.664065         0.142021
 H         2.000712         0.179698         0.997552
 H         1.750549         0.157331        -0.763447
 H        -2.823103        -0.830495         1.274118
 H        -3.296452        -1.333517        -0.925833
 H        -2.542152         1.942605         1.508123
 H        -3.529166         1.842024         0.007580
 H        -5.393855         2.070118         1.312695
 H        -5.186045         0.697009         0.465840
 H        -6.358461         0.644236         2.489788
