19
Iteration:  3282
 C         1.350128        -0.010429         0.035862
 C        -0.165344         0.145477        -0.195629
 C        -1.384813         0.183109        -0.226393
 C        -2.709286         0.024154         0.149478
 O        -3.506351         1.177529        -0.318363
 C        -3.017838        -0.194579         1.641111
 C        -4.499946        -0.603724         1.935467
 C        -5.383981         0.507186         2.314382
 O        -5.059088         1.501062         2.932178
 H         1.462442        -1.069123         0.225781
 H         1.996120         0.297303        -0.837712
 H         1.759676         0.387897         0.963779
 H        -3.161431        -0.754477        -0.391125
 H        -3.140755         1.994043         0.095135
 H        -2.486695        -1.086771         2.050875
 H        -2.745870         0.677903         2.288349
 H        -5.021378        -1.170846         1.155771
 H        -4.436743        -1.208355         2.769536
 H        -6.461987         0.256099         2.161226
