19
Iteration:  1258
 C         1.415029        -0.162507         0.196459
 C        -0.012198         0.073556        -0.091403
 C        -1.211452         0.205034        -0.114066
 C        -2.628490         0.197591        -0.142897
 O        -3.080736         1.562574        -0.544903
 C        -3.289528        -0.211459         1.219129
 C        -4.862761        -0.111641         1.467708
 C        -5.028247         0.184705         2.900483
 O        -5.662769         1.035978         3.503212
 H         1.459564        -1.059282         0.767675
 H         2.126847        -0.345582        -0.696377
 H         1.819348         0.608249         0.843006
 H        -2.768529        -0.624766        -0.781457
 H        -3.378127         1.654584        -1.497935
 H        -3.106471        -1.393771         1.131597
 H        -2.660147         0.299468         1.967427
 H        -5.497090         0.569988         0.989715
 H        -5.328848        -1.068955         1.441982
 H        -4.381638        -0.524368         3.455683
