19
Iteration:   117
 C         1.375851         0.133304         0.147552
 C        -0.053254        -0.137353        -0.173282
 C        -1.268496        -0.164565        -0.210550
 C        -2.698178         0.070594        -0.067320
 O        -3.006368         1.501028        -0.358284
 C        -3.144742        -0.235284         1.300305
 C        -4.657361         0.160202         1.453057
 C        -4.928831         0.783501         2.807361
 O        -5.925808         0.531628         3.466864
 H         1.440868         0.618441         1.118725
 H         2.053489        -0.835231         0.106351
 H         1.770969         0.793494        -0.640095
 H        -3.168201        -0.652068        -0.857077
 H        -3.733946         1.484526        -0.980466
 H        -2.950965        -1.367096         1.466051
 H        -2.591726         0.302020         2.117546
 H        -5.024973         0.843645         0.588436
 H        -5.342741        -0.692332         1.440729
 H        -4.064264         1.417932         3.000346
