19
Iteration:  1747
 C         1.151401         0.163082         0.771308
 C        -0.221521         0.122823         0.186215
 C        -1.314725        -0.056918        -0.239361
 C        -2.729796        -0.100071        -0.276066
 O        -3.429900         0.919354        -1.110396
 C        -3.221078         0.043363         1.260607
 C        -4.661846         0.695805         1.334376
 C        -5.267914         0.744564         2.734981
 O        -4.719437         0.251078         3.740279
 H         1.791093        -0.547216         0.319742
 H         1.560010         1.244135         0.586896
 H         1.030365        -0.141528         1.788610
 H        -3.052590        -1.101642        -0.438399
 H        -2.673654         1.511471        -1.286575
 H        -3.023062        -0.797722         1.874925
 H        -2.653750         0.846435         1.762105
 H        -4.690878         1.661548         0.761920
 H        -5.387272         0.016876         0.757270
 H        -6.327175         0.964457         2.696542
