19
Iteration:  1349
 C         1.319370         0.010315         0.343111
 C        -0.063524        -0.064114        -0.189913
 C        -1.284228        -0.011919        -0.322068
 C        -2.701844         0.115908        -0.165821
 O        -3.146917         1.475982        -0.485602
 C        -3.216868        -0.252892         1.177419
 C        -4.665606         0.108979         1.500849
 C        -4.938355         0.203347         2.955428
 O        -5.710646         1.049483         3.434045
 H         1.611621        -0.942446         0.843267
 H         2.031581         0.275262        -0.411165
 H         1.276239         0.831992         1.090629
 H        -3.235686        -0.445824        -0.899308
 H        -2.501062         2.028483        -0.013201
 H        -2.922367        -1.386440         1.301603
 H        -2.536719         0.083887         2.035901
 H        -4.858336         1.017454         0.880313
 H        -5.230412        -0.731485         1.024735
 H        -4.332990        -0.672832         3.550618
