19
Iteration:  3534charge 0 multiplicity 1
 C         1.410315         0.335150        -0.512150
 C         0.165137        -0.044471         0.066623
 C        -1.087714        -0.067585         0.183921
 C        -2.576258        -0.228090         0.227463
 O        -3.153683         0.722189        -0.692558
 C        -3.295098         0.089190         1.642189
 C        -4.862097        -0.005238         1.473005
 C        -5.665746         0.514303         2.673923
 O        -5.252873         1.315063         3.494644
 H         1.409853         0.044899        -1.533779
 H         1.491958         1.446771        -0.453237
 H         2.242336        -0.068665         0.005582
 H        -2.735702        -1.284428        -0.184984
 H        -2.739363         1.499381        -0.271881
 H        -3.045116        -0.628486         2.375289
 H        -2.842227         1.033607         1.943891
 H        -5.439481         0.584817         0.755371
 H        -5.128696        -1.017788         1.160482
 H        -6.776041         0.434473         2.496466
