19
Iteration:  2426charge 0 multiplicity 1
 C         1.130626         0.532387         0.331608
 C        -0.251396         0.337420         0.270934
 C        -1.419319         0.014042         0.102504
 C        -2.852305        -0.270276        -0.112150
 O        -3.695931         0.883221        -0.439524
 C        -3.431267        -0.757266         1.273369
 C        -4.903696        -0.352688         1.545091
 C        -4.918606         1.000029         2.298231
 O        -4.129089         1.315071         3.158863
 H         1.447795         1.500422        -0.055878
 H         1.552633         0.435918         1.370189
 H         1.837147        -0.216932        -0.118174
 H        -3.014847        -1.131426        -0.800763
 H        -3.019719         1.615989        -0.346717
 H        -3.391296        -1.872780         1.391613
 H        -2.871523        -0.416125         2.167229
 H        -5.298104         0.084494         0.627054
 H        -5.507005        -1.086988         2.000138
 H        -5.776113         1.643614         1.912816
