19
Iteration:  2314charge 0 multiplicity 1
 C         0.963291         0.290984         0.661360
 C        -0.422163         0.152210         0.103933
 C        -1.530059         0.095518        -0.385313
 C        -2.929379         0.039772        -0.121846
 O        -3.607933         1.273616        -0.072344
 C        -3.174173        -0.922342         1.297067
 C        -4.562436        -0.693713         1.949037
 C        -4.864406         0.717176         2.135021
 O        -4.306831         1.688004         2.645804
 H         1.515597         1.108961         0.198743
 H         0.821130         0.593239         1.833086
 H         1.460346        -0.660976         0.481763
 H        -3.617288        -0.515282        -0.861749
 H        -3.356355         1.857135         0.643374
 H        -2.745006        -1.989323         1.190387
 H        -2.385832        -0.444507         1.998124
 H        -5.317959        -1.189088         1.202231
 H        -4.553801        -1.391625         2.716074
 H        -5.946360         0.890403         1.899099
