19
Iteration:  4022charge 0 multiplicity 1
 C         1.256533         0.666433         0.021021
 C        -0.110227         0.225507         0.283427
 C        -1.226228        -0.134620         0.356179
 C        -2.711592        -0.123500         0.546775
 O        -3.510557        -0.393940        -0.707688
 C        -3.230943         1.204267         1.013431
 C        -4.829048         1.256320         1.189406
 C        -5.348901         0.503105         2.511023
 O        -4.610086        -0.140360         3.296703
 H         1.374559         1.755503         0.054648
 H         2.015843         0.154381         0.712182
 H         1.566682         0.302099        -0.960477
 H        -2.936140        -0.918351         1.230650
 H        -3.725429        -1.310485        -0.527033
 H        -3.019243         1.218927         2.126297
 H        -2.702442         2.155350         0.669471
 H        -5.265046         2.275278         1.252145
 H        -5.491386         0.815606         0.503475
 H        -6.475202         0.616542         2.632492
