19
Iteration:  2472
 C         1.142478         0.697032         0.087022
 C        -0.213932         0.211852         0.188130
 C        -1.385986        -0.026046         0.410980
 C        -2.740013        -0.344703         0.063734
 O        -3.355836         0.888102        -0.560744
 C        -3.631870        -0.749001         1.231859
 C        -5.069067        -0.211189         1.472348
 C        -5.130906         0.932712         2.536330
 O        -4.168208         1.290326         3.184118
 H         1.253483         1.758396        -0.347421
 H         1.855392         0.548752         0.888468
 H         1.732891        -0.004760        -0.620685
 H        -2.721518        -1.185459        -0.666714
 H        -2.652594         1.395566        -1.001222
 H        -3.603519        -1.870758         1.227427
 H        -2.965846        -0.606301         2.071928
 H        -5.328106         0.201932         0.521186
 H        -5.753196        -0.952673         1.867838
 H        -6.067709         1.503245         2.383774
