19
Iteration:  2765
 C         1.442639        -0.192781        -0.255557
 C         0.041999        -0.086424         0.139909
 C        -1.167530         0.184758         0.287034
 C        -2.656495         0.157446         0.065870
 O        -3.170452         0.625769        -1.204477
 C        -3.408927         0.763649         1.256161
 C        -4.631283        -0.096633         1.694493
 C        -5.205995         0.186829         3.109949
 O        -5.573197         1.277212         3.541712
 H         2.235325         0.543788         0.025883
 H         1.748699        -1.323326        -0.121927
 H         1.227688         0.068180        -1.340704
 H        -2.768298        -0.979757         0.073492
 H        -2.979358         1.559613        -1.067768
 H        -2.780794         0.727848         2.161688
 H        -3.655494         1.828954         1.004111
 H        -5.467998        -0.210345         1.027765
 H        -4.235557        -1.076413         1.849138
 H        -5.418992        -0.818480         3.591208
