19
Iteration:  3598charge 0 multiplicity 1
 C         1.386029         0.466436        -0.152940
 C        -0.087174         0.212250        -0.118469
 C        -1.190734        -0.272529         0.139891
 C        -2.666234        -0.362108         0.241792
 O        -3.110437         0.432222        -0.868673
 C        -3.262349         0.212316         1.472731
 C        -4.908849         0.266726         1.397125
 C        -5.485090         0.875987         2.607811
 O        -5.096833         0.924376         3.776410
 H         1.791026         0.527500        -1.147475
 H         1.596699         1.483622         0.274800
 H         1.988868        -0.185424         0.430495
 H        -3.118633        -1.409407         0.094474
 H        -2.350330         0.759991        -1.372063
 H        -3.132857        -0.290539         2.390625
 H        -2.893687         1.242684         1.538042
 H        -5.208420         0.766847         0.423760
 H        -5.230740        -0.848936         1.515729
 H        -6.557891         1.200333         2.458174
