19
Iteration:    59charge 0 multiplicity 1
 C         1.604873        -0.042053        -0.111460
 C         0.053740         0.070153         0.130683
 C        -1.168459        -0.031491         0.009019
 C        -2.682563         0.079320        -0.152574
 O        -2.961826         1.373845        -0.604073
 C        -3.386127        -0.103242         1.275488
 C        -4.788249         0.305642         1.435585
 C        -5.106240         0.723400         2.838820
 O        -5.911239         0.398676         3.666640
 H         2.198454         0.258889         0.849066
 H         1.811721        -1.078111        -0.221677
 H         2.034478         0.569969        -0.973677
 H        -3.011935        -0.731737        -0.930712
 H        -3.562584         1.485195        -1.401757
 H        -3.254218        -1.241800         1.432060
 H        -2.734448         0.173189         2.014606
 H        -5.185515         1.126274         0.740363
 H        -5.397653        -0.676906         1.265444
 H        -4.280166         1.494447         3.310080
