19
Iteration:  1492
 C         1.546494        -0.279497        -0.295852
 C         0.129571         0.113168        -0.103154
 C        -1.058439         0.186519         0.114823
 C        -2.523622         0.227935         0.216465
 O        -3.081765         1.209238        -0.715504
 C        -3.209041         0.452864         1.515840
 C        -4.758991         0.277584         1.463574
 C        -5.534995        -0.042125         2.736961
 O        -5.791668         0.743192         3.589306
 H         1.624441        -1.425344        -0.160122
 H         2.121888         0.063218        -1.139664
 H         2.057201         0.057301         0.680227
 H        -2.713746        -0.897458        -0.075134
 H        -3.221770         0.892340        -1.605064
 H        -2.860190        -0.593725         2.027209
 H        -2.664316         1.297625         2.088657
 H        -5.239153         1.229097         1.126862
 H        -4.950573        -0.483496         0.738036
 H        -6.292456        -0.838007         2.740706
