19
Iteration:  4085charge 0 multiplicity 1
 C         1.233151         0.771953        -0.421759
 C        -0.146603         0.276956         0.119969
 C        -1.182469        -0.221698         0.664830
 C        -2.685803        -0.225186         0.743535
 O        -3.150616        -0.406569        -0.737527
 C        -3.145388         1.096926         1.272137
 C        -4.696972         1.242349         1.331999
 C        -5.484120         0.616362         2.396425
 O        -5.067187        -0.130149         3.277758
 H         1.632636         1.773020        -0.141533
 H         1.944798         0.053492        -0.015547
 H         1.207937         0.682930        -1.534131
 H        -3.201893        -0.969466         1.406032
 H        -3.597342        -1.254692        -0.971746
 H        -2.764544         1.100254         2.308192
 H        -2.665927         1.871475         0.683140
 H        -5.039017         2.260459         1.681754
 H        -5.174952         1.121002         0.329863
 H        -6.555909         0.939601         2.507338
