19
Iteration:  3733charge 0 multiplicity 1
 C         1.254301         0.420634         0.510634
 C        -0.058676        -0.056527         0.096604
 C        -1.297035         0.005188        -0.065934
 C        -2.713100        -0.174526         0.136471
 O        -3.488155        -0.138841        -1.153457
 C        -3.360620         0.992949         1.118915
 C        -4.955195         0.802527         1.359929
 C        -5.320227         0.538599         2.808771
 O        -4.460423         0.554231         3.696394
 H         1.644871         0.999616        -0.331372
 H         1.003941         1.071727         1.319936
 H         1.949272        -0.367932         0.808008
 H        -3.003740        -1.105424         0.595594
 H        -2.942360        -0.220396        -1.957349
 H        -2.855446         0.872727         2.061846
 H        -2.990262         1.920780         0.754235
 H        -5.492250         1.556791         0.760726
 H        -5.331066        -0.192938         0.827022
 H        -6.391266         0.189443         3.060793
