19
Iteration:  3298charge 0 multiplicity 1
 C         1.308066        -0.047024         0.069199
 C        -0.099951        -0.056586        -0.092584
 C        -1.311276         0.181849        -0.165042
 C        -2.880824         0.128396         0.048807
 O        -3.568496         1.259548        -0.420106
 C        -2.991125        -0.167958         1.575913
 C        -4.342574        -0.657518         1.956959
 C        -5.345155         0.475808         2.385759
 O        -5.115071         1.526578         2.975820
 H         1.827327        -1.022268         0.137145
 H         1.772395         0.497109        -0.724004
 H         1.552848         0.574370         0.939374
 H        -3.278779        -0.786164        -0.561992
 H        -3.438045         1.958337         0.259793
 H        -2.084557        -0.686776         1.800919
 H        -2.846951         0.820525         2.016886
 H        -4.790653        -1.259759         1.125299
 H        -4.438405        -1.398842         2.857843
 H        -6.403173         0.234647         2.066258
