19
Iteration:  4909
 C         1.182855         0.329168         0.650115
 C        -0.123170         0.088106         0.056611
 C        -1.324279         0.292644        -0.089911
 C        -2.800081         0.042470         0.295794
 O        -3.478561        -0.434864        -0.848213
 C        -3.400717         1.305979         1.011078
 C        -5.041788         0.966142         1.317327
 C        -5.197566         0.407911         2.670005
 O        -4.246229         0.068994         3.365692
 H         1.873670        -0.112360        -0.100374
 H         1.577512         1.353763         0.893654
 H         1.199592        -0.206018         1.643099
 H        -2.822587        -0.869414         0.930636
 H        -3.010645        -0.036540        -1.597468
 H        -2.906637         1.477515         1.967088
 H        -3.505837         2.180167         0.336265
 H        -5.706641         1.872263         1.318318
 H        -5.386450         0.352377         0.434504
 H        -6.243519         0.346786         3.125700
