19
Iteration:  3651
 C         1.306418         0.485187         0.112350
 C        -0.026180         0.084716         0.176526
 C        -1.227620         0.083337         0.096825
 C        -2.669119        -0.282722         0.054851
 O        -3.380958         0.099097        -1.099698
 C        -3.338376         0.349231         1.314069
 C        -4.783915         0.521123         1.373649
 C        -5.403286         0.856700         2.734918
 O        -4.865825         0.742979         3.822994
 H         1.635798         0.675150        -0.939104
 H         1.653571         1.393906         0.721470
 H         1.953019        -0.334885         0.499889
 H        -2.816144        -1.338032         0.151830
 H        -3.179497        -0.343821        -1.936890
 H        -3.154255        -0.268812         2.236215
 H        -2.760171         1.295287         1.414883
 H        -5.128011         1.112481         0.491249
 H        -5.142340        -0.423923         1.020500
 H        -6.412557         1.323182         2.594350
