19
Iteration:  2442
 C         1.250761         0.623840         0.243213
 C        -0.239964         0.274470         0.367353
 C        -1.414324         0.001284         0.075927
 C        -2.848848        -0.291422         0.042385
 O        -3.606336         0.908168        -0.529852
 C        -3.540216        -0.871400         1.352125
 C        -4.945323        -0.224037         1.434538
 C        -4.998272         0.971315         2.379254
 O        -4.125000         1.308644         3.194133
 H         1.284833         1.622427        -0.293776
 H         1.835920         0.509329         1.160666
 H         1.653050        -0.180851        -0.469635
 H        -3.015188        -1.015703        -0.763897
 H        -3.019584         1.653905        -0.797627
 H        -3.407424        -1.933269         1.204286
 H        -2.886274        -0.460729         2.114502
 H        -5.349364        -0.231046         0.410769
 H        -5.605787        -1.016911         2.071008
 H        -5.943189         1.548562         2.178211
