19
Iteration:  1402charge 0 multiplicity 1
 C         1.455145         0.029724         0.075999
 C        -0.087644        -0.080023         0.046614
 C        -1.300601        -0.087520        -0.144646
 C        -2.689609         0.222369        -0.192968
 O        -2.917818         1.439366        -0.704693
 C        -3.200037        -0.059316         1.282250
 C        -4.818727         0.030084         1.497591
 C        -5.135231         0.095914         2.995229
 O        -5.745438         1.019597         3.543510
 H         1.892646        -0.966600         0.267682
 H         1.710981         0.404005        -0.972107
 H         1.913382         0.689424         0.847990
 H        -3.331671        -0.396994        -0.872347
 H        -2.337836         2.068764        -0.200526
 H        -3.064043        -1.185109         1.448333
 H        -2.803363         0.701962         1.963186
 H        -5.333267         0.893839         1.093275
 H        -5.082509        -0.837830         0.932164
 H        -4.657894        -0.753582         3.525020
