19
Iteration:  3005charge 0 multiplicity 1
 C         1.294731         0.278045         0.033121
 C        -0.114697         0.116879        -0.029541
 C        -1.348062         0.117101        -0.045519
 C        -2.802562        -0.155569         0.163200
 O        -3.690077         0.799625        -0.526391
 C        -3.067726        -0.326631         1.628918
 C        -4.517028        -0.537160         1.838941
 C        -5.267257         0.810533         2.237023
 O        -4.824624         1.593265         3.063598
 H         1.797140         0.166117         0.970987
 H         1.837828        -0.354100        -0.612469
 H         1.551445         1.297698        -0.137110
 H        -3.034647        -1.099100        -0.421023
 H        -3.544540         1.710977        -0.179331
 H        -2.569035        -1.211536         2.036069
 H        -2.776593         0.589493         2.190886
 H        -5.096431        -1.130584         0.992014
 H        -4.728493        -1.016745         2.899629
 H        -6.341415         0.903597         1.910004
