19
Iteration:   195charge 0 multiplicity 1
 C         1.498964        -0.043540         0.056500
 C        -0.028776         0.005843        -0.057682
 C        -1.249922        -0.035511        -0.128920
 C        -2.822928         0.191063        -0.120637
 O        -3.070890         1.521045        -0.659700
 C        -3.155016        -0.185121         1.317881
 C        -4.578389        -0.142598         1.644485
 C        -4.925048         0.657020         2.923326
 O        -6.033510         0.670918         3.431348
 H         1.819149         0.372737         1.021840
 H         1.870223        -1.177375         0.090616
 H         2.075593         0.489324        -0.729142
 H        -3.248627        -0.540549        -0.904255
 H        -2.872180         2.170438         0.023159
 H        -2.870847        -1.274886         1.272381
 H        -2.693993         0.465159         2.017396
 H        -5.139520         0.581703         0.859373
 H        -5.111309        -1.064900         1.497198
 H        -4.063408         1.308134         3.057965
