19
Iteration:  3074charge 0 multiplicity 1
 C         1.123521         0.688508        -0.248509
 C        -0.227929         0.119801         0.042312
 C        -1.329339        -0.367028         0.122737
 C        -2.822579        -0.281171         0.223829
 O        -3.209241         1.077136         0.005994
 C        -3.257731        -0.712484         1.662033
 C        -4.695733        -0.585177         1.898147
 C        -5.262434         0.840091         2.150763
 O        -4.711638         1.803416         2.671159
 H         1.885651         0.560852         0.465212
 H         1.531581         0.409647        -1.244179
 H         0.948056         1.755938        -0.161400
 H        -3.308998        -1.057462        -0.334130
 H        -3.558216         1.117198        -0.891400
 H        -3.119328        -1.811495         1.615030
 H        -2.522127        -0.320083         2.377138
 H        -5.065395        -0.971955         0.861186
 H        -5.026911        -1.362785         2.676419
 H        -6.354026         0.952638         1.764469
