19
Iteration:  1281
 C         1.416247        -0.169421         0.265287
 C        -0.041780         0.165429         0.047203
 C        -1.244029         0.100469        -0.203057
 C        -2.732130         0.138515        -0.211008
 O        -3.133859         1.645198        -0.505183
 C        -3.276044        -0.363701         1.120994
 C        -4.714540        -0.111774         1.421787
 C        -4.964259         0.207855         3.011245
 O        -5.665646         1.071779         3.462524
 H         1.570921        -1.115626         0.732407
 H         1.939907        -0.205235        -0.751160
 H         1.901459         0.610727         0.848355
 H        -3.040646        -0.536220        -0.946853
 H        -3.421218         1.602516        -1.417954
 H        -3.048212        -1.485870         1.412393
 H        -2.662549         0.340110         1.761457
 H        -5.046247         0.786664         0.982980
 H        -5.476307        -0.856366         1.213776
 H        -4.271492        -0.427504         3.598270
