19
Iteration:  2834charge 0 multiplicity 1
 C         1.333255         0.110266        -0.151574
 C        -0.146654        -0.157357        -0.106799
 C        -1.318184        -0.147334         0.170550
 C        -2.726263        -0.056510         0.042914
 O        -2.900320         0.889811        -1.147399
 C        -3.316754         0.557527         1.344528
 C        -4.522424        -0.234675         1.891492
 C        -5.295519         0.279678         3.147011
 O        -5.586612         1.434856         3.447584
 H         1.747310         0.775875         0.620243
 H         1.954544        -0.863425        -0.172616
 H         1.502316         0.648007        -1.141884
 H        -3.261071        -1.006072        -0.211138
 H        -2.311505         0.697877        -1.885380
 H        -2.470077         0.569944         2.045089
 H        -3.547068         1.621183         1.119397
 H        -5.294587        -0.144204         1.075803
 H        -4.224733        -1.333389         1.973193
 H        -5.415595        -0.603757         3.888521
