19
Iteration:    65
 C         1.567732        -0.009854        -0.090425
 C         0.059544         0.076957         0.123077
 C        -1.161937        -0.097269         0.010091
 C        -2.686555         0.104983        -0.196424
 O        -2.975902         1.385521        -0.579441
 C        -3.338192        -0.153462         1.257554
 C        -4.780134         0.280712         1.438665
 C        -5.086340         0.774582         2.836385
 O        -5.926039         0.402158         3.661774
 H         2.061220         0.282113         0.792594
 H         1.756244        -1.120380        -0.196228
 H         1.932834         0.562581        -0.916597
 H        -2.961199        -0.643321        -0.902872
 H        -3.717277         1.506945        -1.188446
 H        -3.247032        -1.191095         1.499492
 H        -2.649212         0.074298         2.209198
 H        -5.030107         1.050918         0.744374
 H        -5.399590        -0.541435         1.224821
 H        -4.231152         1.457038         3.059455
