19
Iteration:  1998charge 0 multiplicity 1
 C         1.382945        -0.282570        -0.061275
 C         0.039895         0.015051         0.135018
 C        -1.137760         0.333801         0.265197
 C        -2.661880         0.130580         0.098042
 O        -3.290235         0.914295        -0.848326
 C        -3.223817         0.444592         1.414204
 C        -4.740268         0.033540         1.436026
 C        -5.532323         0.227839         2.608541
 O        -5.196082         0.995352         3.496411
 H         1.447411        -0.374685        -1.108838
 H         2.072867         0.542185         0.349211
 H         1.895288        -1.048342         0.481341
 H        -2.861246        -1.001957        -0.146902
 H        -2.899046         1.801056        -0.846573
 H        -2.843376        -0.072636         2.264014
 H        -3.104761         1.510717         1.651748
 H        -5.300651         0.553682         0.665259
 H        -4.840741        -0.970394         1.074512
 H        -6.317963        -0.558437         2.676414
