19
Iteration:  4699charge 0 multiplicity 1
 C         1.265059         0.100250         0.448898
 C        -0.147523         0.176552         0.170350
 C        -1.341704         0.367779         0.166155
 C        -2.780230         0.049104         0.241329
 O        -3.355922         0.007890        -1.162632
 C        -3.634462         1.045313         1.062608
 C        -5.024704         0.662459         1.296648
 C        -5.240582         0.397852         2.822013
 O        -4.263072         0.267492         3.527042
 H         1.699853        -0.859015         0.721118
 H         2.017221         0.408851        -0.375310
 H         1.431580         0.828621         1.211558
 H        -2.847694        -1.062279         0.566531
 H        -2.704664        -0.480848        -1.654301
 H        -3.073301         1.280362         1.941920
 H        -3.546562         1.924082         0.403610
 H        -5.635638         1.537846         1.086234
 H        -5.326539        -0.255055         0.745918
 H        -6.249068         0.401356         3.195006
