19
Iteration:  2155
 C         1.362542         0.334159        -0.372193
 C        -0.001453         0.131658        -0.056493
 C        -1.145596        -0.197877         0.284962
 C        -2.612202        -0.123936         0.320432
 O        -3.051933         1.086075        -0.295619
 C        -3.416757        -0.389629         1.609478
 C        -4.918199        -0.324977         1.445942
 C        -5.563853         0.619301         2.421944
 O        -5.057712         1.472962         3.111824
 H         1.645296         0.641048        -1.444389
 H         1.827361         1.084256         0.223751
 H         1.988712        -0.603296        -0.256262
 H        -2.893933        -1.000083        -0.369186
 H        -2.805571         1.690849         0.415691
 H        -3.051908        -1.382629         1.956990
 H        -3.258530         0.438068         2.340903
 H        -5.072092         0.043039         0.431739
 H        -5.384638        -1.331773         1.570131
 H        -6.693679         0.671665         2.402084
