19
Iteration:  1951charge 0 multiplicity 1
 C         1.463291        -0.313286         0.266642
 C         0.008234         0.109333         0.098010
 C        -1.213484         0.235380        -0.015024
 C        -2.662987         0.186483        -0.052182
 O        -3.224647         0.907702        -1.172435
 C        -3.406948         0.610104         1.329742
 C        -4.833346         0.167641         1.480102
 C        -5.451223         0.158736         2.796262
 O        -5.055596         0.802759         3.733406
 H         1.915997        -0.760348        -0.632007
 H         2.149913         0.355129         0.763134
 H         1.498104        -1.052167         1.100429
 H        -2.965190        -0.859329        -0.109434
 H        -2.864350         1.798785        -1.158778
 H        -2.884964         0.089530         2.169152
 H        -3.375667         1.717679         1.543343
 H        -5.475678         0.526342         0.667629
 H        -4.889781        -0.937992         1.290720
 H        -6.471378        -0.332273         2.715851
