19
Iteration:   753
 C         1.299435        -0.535691         0.128314
 C        -0.038679        -0.000420         0.056699
 C        -1.223496         0.152745        -0.056630
 C        -2.641868         0.323822        -0.209658
 O        -2.992459         1.617311        -0.604926
 C        -3.286793         0.170149         1.244846
 C        -4.848813         0.340870         1.244410
 C        -5.226721         0.772616         2.861067
 O        -5.495446        -0.025464         3.722992
 H         1.663018        -0.512949         1.232851
 H         1.362864        -1.531164        -0.229973
 H         2.054667         0.032449        -0.516611
 H        -3.083384        -0.446744        -0.857976
 H        -2.186109         1.847821        -1.086224
 H        -2.926171        -0.786892         1.558932
 H        -2.714957         0.852754         1.922286
 H        -5.318420         1.111925         0.706419
 H        -5.283089        -0.703462         1.090026
 H        -5.178614         1.733865         3.248148
