19
Iteration:  2021charge 0 multiplicity 1
 C         1.490533        -0.158726        -0.209114
 C         0.088977        -0.035880         0.075508
 C        -1.111720         0.214977         0.151427
 C        -2.614686         0.170457         0.231455
 O        -3.198314         0.979696        -0.874014
 C        -3.324336         0.279041         1.590235
 C        -4.730016        -0.107711         1.416023
 C        -5.656212         0.324713         2.623041
 O        -5.308283         1.097976         3.536707
 H         1.690659        -0.331604        -1.250973
 H         2.157865         0.581670         0.299052
 H         1.820177        -1.023591         0.375066
 H        -2.681561        -0.856771        -0.258532
 H        -2.896828         1.897035        -0.803083
 H        -2.899825        -0.350466         2.368216
 H        -3.216168         1.309389         1.965318
 H        -5.180920         0.354522         0.544652
 H        -4.761665        -1.153678         1.186641
 H        -6.649707        -0.138997         2.606649
