19
Iteration:  2480
 C         1.178106         0.691462         0.021421
 C        -0.211229         0.233567         0.138752
 C        -1.363136        -0.070851         0.505753
 C        -2.771403        -0.300060         0.009481
 O        -3.297845         0.866101        -0.548278
 C        -3.653144        -0.798204         1.238609
 C        -5.069177        -0.233887         1.397801
 C        -5.151308         0.918395         2.584200
 O        -4.182621         1.321283         3.206867
 H         1.284816         1.705519        -0.238982
 H         1.723319         0.729651         0.982158
 H         1.712720         0.207934        -0.728901
 H        -2.698877        -1.201298        -0.658693
 H        -2.508586         1.256036        -0.992758
 H        -3.630560        -1.882444         1.413773
 H        -3.263707        -0.408333         2.215375
 H        -5.561442         0.336243         0.610548
 H        -5.808595        -0.902323         1.713194
 H        -6.048586         1.641716         2.574592
