19
Iteration:   173charge 0 multiplicity 1
 C         1.311655         0.028623         0.115258
 C        -0.071183         0.002995        -0.105617
 C        -1.271238        -0.054771        -0.252094
 C        -2.644334         0.140720        -0.192276
 O        -2.983867         1.497946        -0.560486
 C        -3.139437        -0.241933         1.346368
 C        -4.662597        -0.085034         1.643764
 C        -4.944319         0.708316         2.914500
 O        -6.013456         0.640403         3.454726
 H         1.599698         0.455363         1.078909
 H         1.786904        -1.066610         0.137691
 H         1.876350         0.607925        -0.637148
 H        -3.114077        -0.599459        -0.977115
 H        -2.215221         2.127323        -0.512394
 H        -2.876740        -1.326695         1.375465
 H        -2.688150         0.547477         1.946106
 H        -5.177702         0.441722         0.706867
 H        -5.206454        -1.002072         1.813405
 H        -4.008631         1.379093         3.295546
