19
Iteration:  4039charge 0 multiplicity 1
 C         1.258673         0.690126        -0.086775
 C        -0.141154         0.211682         0.195866
 C        -1.271122        -0.114215         0.468489
 C        -2.776637        -0.206696         0.537692
 O        -3.336290        -0.449573        -0.757267
 C        -3.335768         1.155003         1.319711
 C        -4.803095         1.261307         1.285584
 C        -5.333101         0.564414         2.413656
 O        -4.661176        -0.068570         3.213498
 H         1.315172         1.789871         0.085927
 H         1.965498         0.289297         0.583746
 H         1.555523         0.540304        -1.160941
 H        -3.113207        -1.063743         1.205318
 H        -3.779341        -1.291948        -0.766401
 H        -2.837644         1.191515         2.271861
 H        -2.910018         1.882643         0.689657
 H        -4.972164         2.343848         1.403899
 H        -5.052804         0.873941         0.216108
 H        -6.379396         0.680344         2.734763
