19
Iteration:  4424
 C         1.403148         0.269893        -0.268186
 C         0.033148         0.264032         0.061515
 C        -1.178364         0.375389         0.145191
 C        -2.553677         0.085248         0.673518
 O        -3.554397        -0.376092        -0.187837
 C        -3.214689         1.318342         1.273308
 C        -4.805473         1.372179         1.373986
 C        -5.452821         0.446692         2.424653
 O        -4.977124        -0.532623         2.994935
 H         2.068822         0.334904         0.588311
 H         1.519440        -0.562622        -0.988898
 H         1.518980         1.145695        -0.908701
 H        -2.436303        -0.737482         1.362257
 H        -3.289422        -1.243176        -0.537694
 H        -2.911039         1.683884         2.258857
 H        -2.924217         2.103596         0.586648
 H        -5.199607         2.335138         1.608215
 H        -5.170636         1.003008         0.351039
 H        -6.455706         0.578797         2.739533
