19
Iteration:  2800charge 0 multiplicity 1
 C         1.389615         0.009424        -0.235226
 C        -0.074747        -0.074363        -0.073609
 C        -1.268628        -0.173836         0.206620
 C        -2.712308         0.027366         0.127648
 O        -2.915927         0.702285        -1.180998
 C        -3.370613         0.838567         1.318501
 C        -4.613050        -0.125081         1.786971
 C        -5.272810         0.201680         3.146053
 O        -5.624437         1.301424         3.529916
 H         2.000494         0.634038         0.437040
 H         1.940616        -1.048003        -0.335415
 H         1.634862         0.179457        -1.343307
 H        -3.181315        -0.974263        -0.083334
 H        -2.252858         1.406341        -1.125462
 H        -2.663053         1.161272         2.102821
 H        -3.789068         1.778437         0.829066
 H        -5.390993        -0.116513         0.984208
 H        -4.237983        -1.192913         1.801983
 H        -5.367174        -0.567515         3.998886
