19
Iteration:   544
 C         1.335072        -0.480694         0.029751
 C        -0.056317        -0.218382        -0.111498
 C        -1.216740         0.177664        -0.030707
 C        -2.660412         0.284808         0.019740
 O        -2.947312         1.463085        -0.835345
 C        -3.140145         0.600603         1.444378
 C        -4.713164         0.699642         1.575114
 C        -5.145185         0.602107         2.986871
 O        -5.845290        -0.303799         3.454453
 H         1.710774         0.007507         0.911259
 H         1.640190        -1.526039         0.029119
 H         1.824622        -0.025383        -0.842807
 H        -3.056884        -0.603304        -0.435433
 H        -2.951946         1.099209        -1.765047
 H        -2.672046        -0.092824         2.066561
 H        -2.839287         1.574256         1.793434
 H        -5.152796         1.596375         1.030090
 H        -5.078269        -0.192246         0.947346
 H        -4.607442         1.363430         3.572358
