19
Iteration:  3151
 C         1.066772         0.690509        -0.479654
 C        -0.297586         0.307002        -0.116970
 C        -1.229673        -0.292619         0.376590
 C        -2.736591        -0.236461         0.472893
 O        -3.098857         1.054426         0.116246
 C        -3.377804        -0.818921         1.804941
 C        -4.882862        -0.613350         1.697086
 C        -5.336745         0.828926         2.099193
 O        -4.586625         1.713679         2.495525
 H         1.680819        -0.017477        -0.049977
 H         1.349139         0.551165        -1.527802
 H         1.454546         1.610864        -0.132560
 H        -3.151771        -1.017599        -0.312664
 H        -2.365162         1.587089         0.475035
 H        -3.087945        -1.885842         1.748337
 H        -3.012198        -0.364918         2.751286
 H        -5.482440        -1.060956         0.788027
 H        -5.483494        -1.238825         2.530162
 H        -6.387638         0.956950         1.863348
