19
Iteration:   903charge 0 multiplicity 1
 C         1.617420        -0.345426        -0.363598
 C         0.099677        -0.180624        -0.214284
 C        -1.071918         0.077263         0.059784
 C        -2.497237         0.281074         0.154008
 O        -3.035855         1.397048        -0.593110
 C        -3.238638         0.249116         1.527133
 C        -4.760962         0.456306         1.567110
 C        -5.242206         0.688393         2.984551
 O        -6.209823         0.105418         3.397808
 H         2.129562        -0.509584         0.577507
 H         1.922296        -1.172734        -0.983613
 H         2.042460         0.590809        -0.759248
 H        -2.925646        -0.456258        -0.475027
 H        -2.437146         1.858395        -1.179196
 H        -3.028533        -0.795211         1.682588
 H        -2.610189         0.928880         2.084373
 H        -4.903106         1.463053         0.965782
 H        -5.409491        -0.324289         1.134037
 H        -4.765570         1.409384         3.684403
