19
Iteration:  4645
 C         1.291183         0.200274         0.445703
 C        -0.110203         0.233735         0.201701
 C        -1.308419         0.268446        -0.085302
 C        -2.735321         0.145372         0.096276
 O        -3.497660        -0.231254        -1.073872
 C        -3.393062         1.312622         0.921736
 C        -4.731427         0.792026         1.430736
 C        -5.248952         0.338143         2.789180
 O        -4.644391         0.117665         3.792202
 H         1.371603        -0.751553         0.987612
 H         1.878814        -0.050258        -0.492347
 H         1.721113         0.925575         1.080794
 H        -2.851811        -0.769733         0.655071
 H        -2.942695        -0.200314        -1.848619
 H        -2.592979         1.246185         1.577240
 H        -3.381305         2.173950         0.278181
 H        -5.532720         1.494298         1.247847
 H        -5.151518        -0.133415         0.867206
 H        -6.409943         0.108982         2.732819
