19
Iteration:  3586charge 0 multiplicity 1
 C         1.277362         0.440877        -0.233163
 C        -0.146540         0.185476        -0.051024
 C        -1.224691        -0.230037         0.221344
 C        -2.693283        -0.353680         0.222097
 O        -3.084082         0.528825        -0.866382
 C        -3.205535         0.159481         1.577477
 C        -4.713882         0.209387         1.448049
 C        -5.545124         0.813046         2.561887
 O        -5.124750         0.978882         3.691618
 H         1.543550         0.303866        -1.284758
 H         1.517402         1.480627         0.079321
 H         1.835525        -0.298582         0.328190
 H        -2.916368        -1.432570        -0.000440
 H        -2.206744         0.902404        -1.055817
 H        -2.585380        -0.210630         2.381808
 H        -2.938149         1.223424         1.498609
 H        -4.998292         0.694266         0.471784
 H        -5.286249        -0.798278         1.327110
 H        -6.612089         1.063220         2.278906
