19
Iteration:  2717
 C         1.348366        -0.378248        -0.065862
 C         0.021502         0.283581        -0.084829
 C        -1.191164         0.396765        -0.035210
 C        -2.653133         0.145060         0.157209
 O        -3.330337         0.599067        -0.996841
 C        -3.316210         0.632541         1.464751
 C        -4.638761        -0.171394         1.676948
 C        -5.340893         0.141201         2.980099
 O        -5.292702         1.288567         3.370184
 H         1.992264         0.324628         0.575770
 H         1.184123        -1.222341         0.662075
 H         1.915431        -0.580159        -0.982861
 H        -2.671700        -0.993001         0.130799
 H        -2.804610         1.392346        -1.276551
 H        -2.662521         0.260104         2.332565
 H        -3.265568         1.723394         1.563794
 H        -5.372663         0.059534         0.917315
 H        -4.400744        -1.229851         1.591477
 H        -5.722355        -0.751791         3.555198
