19
Iteration:   860charge 0 multiplicity 1
 C         1.401996        -0.278574        -0.221037
 C        -0.028529        -0.065496        -0.121315
 C        -1.244801        -0.119174        -0.093984
 C        -2.704871         0.255577         0.082124
 O        -2.790613         1.528598        -0.497720
 C        -3.137837         0.246410         1.546712
 C        -4.643174         0.367630         1.501008
 C        -5.314451         0.778053         2.776479
 O        -5.948475         0.013907         3.490911
 H         1.814072        -0.395909         0.791935
 H         1.508660        -1.223009        -0.706442
 H         1.914808         0.543016        -0.745004
 H        -3.285332        -0.502810        -0.406149
 H        -2.120353         1.438941        -1.208590
 H        -2.878836        -0.672514         2.027788
 H        -2.820608         1.195739         2.030853
 H        -4.984693         1.135952         0.753337
 H        -5.171937        -0.523390         1.075597
 H        -5.117297         1.857488         3.042328
