19
Iteration:  3338
 C         1.303712        -0.134594         0.128213
 C        -0.221047        -0.093286         0.070575
 C        -1.382604         0.179912        -0.278028
 C        -2.885667         0.171063        -0.040209
 O        -3.479509         1.346599        -0.576468
 C        -2.970438         0.023904         1.528662
 C        -4.286151        -0.624530         2.020359
 C        -5.338727         0.326676         2.485376
 O        -5.137327         1.434354         2.975980
 H         1.765999        -1.083960        -0.073716
 H         1.713323         0.605482        -0.661490
 H         1.486874         0.332586         1.116313
 H        -3.372105        -0.637723        -0.547874
 H        -3.381221         2.201326        -0.131230
 H        -2.239171        -0.695109         1.951299
 H        -2.837069         1.002505         2.064898
 H        -4.645596        -1.544367         1.491809
 H        -3.917991        -0.972462         2.909936
 H        -6.353198        -0.101777         2.657193
