19
Iteration:  3229
 C         1.352723         0.202083        -0.348349
 C        -0.118523         0.156278        -0.044489
 C        -1.321602         0.217063         0.222004
 C        -2.691165        -0.067892         0.317999
 O        -3.512803         1.033668        -0.089632
 C        -3.116085        -0.578644         1.672098
 C        -4.668081        -0.595947         1.786287
 C        -5.420093         0.725994         2.166077
 O        -4.894575         1.633437         2.793915
 H         1.889324        -0.674437        -0.185125
 H         1.508433         0.479449        -1.393780
 H         1.891881         0.961776         0.199672
 H        -2.846622        -0.967854        -0.461281
 H        -2.886305         1.797050        -0.180135
 H        -2.644655        -1.541341         1.860874
 H        -2.786221         0.125827         2.484784
 H        -5.214042        -0.874957         0.779065
 H        -5.073059        -1.448438         2.458377
 H        -6.537796         0.556681         2.084764
