19
Iteration:  1898charge 0 multiplicity 1
 C         1.342273        -0.092366         0.592877
 C        -0.151833        -0.077365         0.207836
 C        -1.343760         0.007076        -0.147258
 C        -2.800173         0.149075        -0.172689
 O        -3.141059         0.983352        -1.396467
 C        -3.378752         0.703487         1.224733
 C        -4.775615         0.154678         1.442478
 C        -5.465531         0.481341         2.863899
 O        -4.778029         0.476883         3.879585
 H         1.919623        -0.431022        -0.247201
 H         1.676022         0.970694         0.798173
 H         1.609684        -0.638772         1.496079
 H        -3.277886        -0.873546        -0.298392
 H        -2.433797         1.625368        -1.514988
 H        -2.877026         0.121400         1.972070
 H        -3.363457         1.808136         1.312285
 H        -5.336990         0.433094         0.579013
 H        -4.758577        -0.921447         1.378364
 H        -6.570212         0.379386         2.819633
