19
Iteration:  4008
 C         1.308189         0.601842         0.120941
 C        -0.119984         0.217932         0.337451
 C        -1.277542        -0.031166         0.218751
 C        -2.748996        -0.113838         0.467648
 O        -3.573926        -0.387319        -0.604803
 C        -3.265803         1.288231         0.940892
 C        -4.771145         1.161535         1.268240
 C        -5.284898         0.491191         2.496183
 O        -4.613184        -0.154826         3.313117
 H         1.431440         1.725158         0.108864
 H         1.952759         0.211454         0.908295
 H         1.654378         0.196103        -0.885192
 H        -2.933912        -0.781100         1.353384
 H        -3.664935        -1.328737        -0.896128
 H        -2.605960         1.625883         1.787423
 H        -3.121857         1.955116         0.055596
 H        -5.209971         2.197081         1.229762
 H        -5.176652         0.689409         0.356249
 H        -6.407388         0.481963         2.629845
