19
Iteration:   857charge 0 multiplicity 1
 C         1.385753        -0.270207        -0.210943
 C        -0.061797        -0.072709        -0.103417
 C        -1.261610        -0.140918        -0.099622
 C        -2.647660         0.259962         0.083990
 O        -2.796718         1.529499        -0.493616
 C        -3.146916         0.281951         1.550840
 C        -4.644816         0.342453         1.487904
 C        -5.291688         0.767868         2.759985
 O        -5.928854         0.019298         3.486422
 H         1.831360        -0.363762         0.740107
 H         1.553904        -1.272446        -0.722809
 H         1.883285         0.534393        -0.714398
 H        -3.252288        -0.440420        -0.469889
 H        -2.169570         1.488905        -1.204563
 H        -2.876208        -0.729458         1.918295
 H        -2.797409         1.158119         2.059366
 H        -5.034775         1.178092         0.752994
 H        -5.272501        -0.482360         1.222275
 H        -5.256772         1.873535         3.095278
