19
Iteration:  4475
 C         1.294599         0.320811        -0.290038
 C        -0.200509         0.370605        -0.036239
 C        -1.253072         0.233209         0.526802
 C        -2.648046        -0.133466         0.668415
 O        -3.185086        -0.304490        -0.683277
 C        -3.295231         1.184023         1.187575
 C        -4.770306         1.348826         1.437823
 C        -5.421269         0.537974         2.555916
 O        -4.928629        -0.377707         3.201595
 H         1.688926         0.222659         0.750502
 H         1.500027        -0.525482        -0.888091
 H         1.819000         1.263170        -0.678385
 H        -2.884780        -1.053654         1.262744
 H        -3.051903        -1.245616        -0.982288
 H        -3.003141         1.291806         2.251068
 H        -2.886931         2.018852         0.576261
 H        -5.051168         2.446637         1.707285
 H        -5.296275         1.114820         0.512660
 H        -6.488222         0.727843         2.767217
