19
Iteration:  4760
 C         1.205905         0.268023         0.218064
 C        -0.237021         0.152723         0.490806
 C        -1.409812        -0.120115         0.477985
 C        -2.869571        -0.110390         0.228323
 O        -3.155076         0.132622        -1.194745
 C        -3.617129         1.192192         0.660880
 C        -4.998101         0.885375         1.397232
 C        -5.070459         0.218042         2.761411
 O        -4.296042         0.316432         3.691042
 H         1.744664        -0.661322         0.012464
 H         1.225796         1.005268        -0.515733
 H         1.677170         0.707674         1.148011
 H        -3.435106        -1.007785         0.418545
 H        -2.694219        -0.510906        -1.723142
 H        -3.182546         1.954084         1.426548
 H        -3.854724         1.729023        -0.268319
 H        -5.783157         1.683353         1.405720
 H        -5.543296         0.218897         0.660914
 H        -5.957392        -0.415909         2.865641
