19
Iteration:  4439
 C         1.459764         0.256913        -0.332424
 C        -0.000105         0.441542         0.154716
 C        -1.253345         0.290174         0.140022
 C        -2.634624         0.043792         0.705376
 O        -3.479371        -0.454336        -0.432330
 C        -3.271468         1.371630         1.334143
 C        -4.768159         1.329534         1.424018
 C        -5.444255         0.495783         2.475111
 O        -4.976581        -0.501950         3.042666
 H         2.134030         0.063530         0.535497
 H         1.675338        -0.719042        -0.874344
 H         1.839739         1.069833        -0.953052
 H        -2.591825        -0.691984         1.600168
 H        -3.195984        -1.413526        -0.536976
 H        -2.716322         1.349517         2.290309
 H        -2.919629         2.337258         0.854567
 H        -5.208555         2.370405         1.529717
 H        -5.290491         0.979882         0.569411
 H        -6.495993         0.888054         2.582035
