19
Iteration:  4731
 C         1.207230         0.158530         0.274171
 C        -0.226541         0.201184         0.511485
 C        -1.412786         0.102519         0.385151
 C        -2.897013         0.068278         0.133815
 O        -3.196685         0.049225        -1.217875
 C        -3.612209         1.091727         0.907145
 C        -4.991650         0.719415         1.342298
 C        -5.165976         0.310492         2.782202
 O        -4.204903         0.336009         3.541012
 H         1.759424        -0.785724         0.246596
 H         1.430912         0.820968        -0.667666
 H         1.688678         0.741025         1.032182
 H        -3.325044        -0.929443         0.459338
 H        -2.918669        -0.824402        -1.580062
 H        -3.208683         1.133741         1.884575
 H        -3.556658         2.133862         0.627779
 H        -5.698983         1.564352         1.215104
 H        -5.337603        -0.051845         0.670212
 H        -6.197934        -0.068703         3.080936
