19
Iteration:  3038charge 0 multiplicity 1
 C         1.289425         0.484320        -0.068651
 C        -0.157612         0.222007        -0.089178
 C        -1.352397        -0.122274         0.037601
 C        -2.843325        -0.279127         0.196664
 O        -3.402213         0.979097        -0.302186
 C        -3.285552        -0.461987         1.652903
 C        -4.724081        -0.637243         1.975088
 C        -5.272064         0.815562         2.181204
 O        -4.696363         1.637128         2.872889
 H         1.681306         0.181909         0.864776
 H         1.830181         0.049810        -0.861156
 H         1.381736         1.530401        -0.239896
 H        -3.230876        -0.980683        -0.576361
 H        -2.857932         1.242218        -1.050401
 H        -2.705185        -1.350946         1.918965
 H        -2.911951         0.320392         2.335368
 H        -5.344163        -1.338703         1.302293
 H        -4.842585        -1.089986         3.038755
 H        -6.278375         1.105958         1.676762
