19
Iteration:  2490
 C         1.203420         0.721773        -0.045384
 C        -0.212635         0.267597         0.144604
 C        -1.306020        -0.116380         0.476541
 C        -2.782596        -0.345708         0.105611
 O        -3.232792         0.858165        -0.549458
 C        -3.700623        -0.784172         1.298460
 C        -5.130042        -0.166246         1.407643
 C        -5.119337         0.920388         2.515331
 O        -4.213614         1.322013         3.240159
 H         1.028782         1.710195        -0.260868
 H         1.538014         0.508420         0.993544
 H         1.760230         0.175466        -0.726469
 H        -2.773631        -0.977995        -0.807109
 H        -2.510420         1.258661        -1.039167
 H        -3.698920        -1.872782         1.250988
 H        -3.073983        -0.298349         2.108575
 H        -5.504697         0.338077         0.448766
 H        -5.814313        -1.038834         1.484246
 H        -6.213252         1.117050         2.847191
