19
Iteration:  1919charge 0 multiplicity 1
 C         1.309740        -0.162118         0.461964
 C        -0.078192        -0.103205         0.101131
 C        -1.243375         0.199937         0.019364
 C        -2.713252         0.194943        -0.202923
 O        -3.159851         0.935651        -1.292325
 C        -3.329275         0.620722         1.129573
 C        -4.786829         0.172056         1.480022
 C        -5.443036         0.318450         2.854315
 O        -4.946005         0.616699         3.924120
 H         1.957141        -0.543448        -0.326104
 H         1.640532         0.853697         0.766533
 H         1.312855        -0.859904         1.316146
 H        -2.853251        -0.883850        -0.456324
 H        -2.576963         1.706011        -1.428179
 H        -2.807809         0.270659         2.003360
 H        -3.535814         1.678157         1.157249
 H        -5.536181         0.462415         0.763997
 H        -4.921931        -0.920111         1.456986
 H        -6.572391         0.262023         2.688388
