19
Iteration:  1797
 C         1.121537         0.173429         0.787286
 C        -0.167857         0.019563         0.343399
 C        -1.349588         0.004985         0.047786
 C        -2.826415        -0.101455        -0.355091
 O        -3.211863         0.848583        -1.382660
 C        -3.495008         0.240334         1.057129
 C        -4.893552         0.773951         1.443914
 C        -5.242545         0.557952         2.858364
 O        -4.420508         0.260783         3.699500
 H         1.851389        -0.393981         0.111244
 H         1.309149         1.190172         0.596092
 H         1.204613        -0.322048         1.789653
 H        -3.098673        -1.168241        -0.588531
 H        -2.796543         1.698887        -1.053926
 H        -3.358784        -0.717731         1.686214
 H        -2.849675         1.007656         1.546383
 H        -5.009807         1.733012         0.930535
 H        -5.560083         0.121096         0.898185
 H        -6.318443         0.808712         2.981987
