19
Iteration:  1397
 C         1.414554         0.033309         0.105966
 C        -0.052679        -0.027207         0.021919
 C        -1.284966        -0.084320        -0.209297
 C        -2.705896         0.161551        -0.204539
 O        -2.879369         1.461173        -0.703108
 C        -3.202214        -0.094971         1.239799
 C        -4.803864         0.023878         1.501380
 C        -5.136593         0.156616         3.004059
 O        -5.746760         1.010989         3.550237
 H         1.724696        -0.993437         0.327458
 H         1.831998         0.333774        -0.890443
 H         1.786595         0.668977         0.903451
 H        -3.399983        -0.408116        -0.898185
 H        -2.511840         2.022725         0.005867
 H        -2.905989        -1.068370         1.548132
 H        -2.765336         0.488538         2.084042
 H        -5.432188         0.925578         1.225722
 H        -5.303136        -0.971084         1.064322
 H        -4.767853        -0.800255         3.731284
