19
Iteration:   465
 C         1.440586        -0.432530        -0.378388
 C         0.035358        -0.136843        -0.096977
 C        -1.133774         0.150584         0.110565
 C        -2.563893         0.246140         0.299189
 O        -3.099561         1.201225        -0.719882
 C        -3.060054         0.549501         1.649866
 C        -4.633483         0.775211         1.422518
 C        -5.284721         0.715828         2.913270
 O        -5.995981        -0.237360         3.266702
 H         2.068552        -0.064633         0.417191
 H         1.519953        -1.599203        -0.375006
 H         1.814990        -0.048003        -1.313536
 H        -3.013242        -0.668807        -0.086883
 H        -3.079090         2.149660        -0.422901
 H        -2.928491        -0.273045         2.257992
 H        -2.762056         1.401714         2.322970
 H        -4.934471         1.754150         0.930042
 H        -4.825980        -0.301473         1.011603
 H        -4.964178         1.543871         3.636670
