19
Iteration:  3213charge 0 multiplicity 1
 C         1.289059         0.353088        -0.484723
 C         0.019519         0.017767         0.118712
 C        -1.199086         0.152506         0.295698
 C        -2.715602        -0.067698         0.313303
 O        -3.555491         1.049520        -0.102783
 C        -3.185799        -0.607854         1.735885
 C        -4.756905        -0.557734         1.744546
 C        -5.423995         0.702060         2.180494
 O        -4.811509         1.606593         2.711727
 H         1.967194        -0.572928        -0.287041
 H         1.085434         0.613459        -1.550627
 H         1.695129         1.244641         0.057522
 H        -2.923330        -0.839924        -0.374259
 H        -3.074536         1.861240         0.184093
 H        -2.989185        -1.717701         1.778644
 H        -2.656937        -0.124106         2.571478
 H        -5.044587        -0.914122         0.816366
 H        -5.068140        -1.166455         2.528233
 H        -6.450411         1.000100         1.859812
