19
Iteration:  1017charge 0 multiplicity 1
 C         1.624352        -0.134189        -0.345985
 C         0.080670        -0.348305        -0.415469
 C        -1.010493         0.011474        -0.094158
 C        -2.631318         0.149761         0.150926
 O        -3.099582         1.392740        -0.489422
 C        -2.989420         0.314853         1.631370
 C        -4.596480         0.574868         1.774353
 C        -5.280729         0.246531         3.010413
 O        -6.442641         0.482898         3.225209
 H         2.002417        -0.438811         0.631425
 H         2.312105        -0.539743        -1.115382
 H         1.784407         0.935843        -0.397817
 H        -2.982027        -0.837482        -0.392665
 H        -2.629890         1.225125        -1.297331
 H        -2.775928        -0.465712         2.370782
 H        -2.498072         1.205047         2.054108
 H        -4.524015         1.512769         1.304626
 H        -4.858332        -0.262692         0.970710
 H        -4.569819        -0.366597         3.735767
