19
Iteration:  1825charge 0 multiplicity 1
 C         1.171610         0.155621         0.759663
 C        -0.171846        -0.076003         0.359123
 C        -1.330269        -0.138571        -0.035994
 C        -2.853516         0.083769        -0.205689
 O        -3.165090         0.884357        -1.394983
 C        -3.545563         0.389284         1.217428
 C        -5.065997         0.571704         1.305878
 C        -5.225578         0.559421         2.842873
 O        -4.330805         0.258777         3.664521
 H         1.887383        -0.274987         0.078188
 H         1.358722         1.291471         0.750648
 H         1.354044        -0.225765         1.782687
 H        -3.359834        -0.863730        -0.323391
 H        -2.554129         1.683212        -1.324662
 H        -3.171554        -0.454203         1.763326
 H        -3.178495         1.373253         1.526456
 H        -5.297194         1.527515         0.764914
 H        -5.657569        -0.239698         0.759229
 H        -6.175840         1.076489         3.150412
