19
Iteration:  3324charge 0 multiplicity 1
 C         1.254910        -0.046116         0.138366
 C        -0.146109        -0.229721         0.063300
 C        -1.318918         0.116390        -0.184222
 C        -2.853782         0.255468        -0.004391
 O        -3.613162         1.352918        -0.561752
 C        -2.995390        -0.036046         1.459959
 C        -4.262716        -0.538267         2.027225
 C        -5.361590         0.355502         2.450494
 O        -5.096051         1.411524         2.966815
 H         1.774765        -1.069583        -0.058304
 H         1.575009         0.591663        -0.809038
 H         1.766091         0.461301         1.009848
 H        -3.151123        -0.656398        -0.472091
 H        -3.476601         1.979445         0.183837
 H        -2.109321        -0.660305         1.533211
 H        -2.655222         0.875159         1.973586
 H        -4.615391        -1.354070         1.452072
 H        -4.186942        -1.035939         3.045417
 H        -6.394849        -0.097115         2.404084
