19
Iteration:  1278
 C         1.408798        -0.173004         0.265149
 C        -0.002962         0.164573         0.028931
 C        -1.242083         0.115794        -0.195391
 C        -2.729641         0.180226        -0.213933
 O        -3.115174         1.621107        -0.508644
 C        -3.279739        -0.353685         1.123080
 C        -4.751024        -0.133576         1.417206
 C        -4.968816         0.202878         3.023730
 O        -5.674392         1.081051         3.477967
 H         1.529262        -1.165077         0.720804
 H         1.911022        -0.201761        -0.754919
 H         1.875107         0.649787         0.811873
 H        -3.129849        -0.539814        -0.962606
 H        -3.409300         1.486606        -1.433617
 H        -3.052221        -1.323075         1.464351
 H        -2.679070         0.192728         1.850181
 H        -5.025812         0.777958         0.866594
 H        -5.410068        -0.881482         1.169522
 H        -4.214794        -0.474433         3.555158
