19
Iteration:  1316charge 0 multiplicity 1
 C         1.319485        -0.055478         0.304841
 C        -0.177545        -0.092146         0.083537
 C        -1.308595         0.088507        -0.292122
 C        -2.718503         0.123174        -0.163768
 O        -3.261558         1.515958        -0.374196
 C        -3.168079        -0.313728         1.109591
 C        -4.545644         0.086554         1.430853
 C        -4.887405         0.215794         2.902279
 O        -5.645208         1.030072         3.379312
 H         1.847432        -0.901746         0.783499
 H         1.805629         0.159069        -0.636064
 H         1.536366         0.839772         0.926290
 H        -3.158501        -0.420309        -0.977886
 H        -2.876281         1.904573        -1.156985
 H        -2.813174        -1.457706         1.086066
 H        -2.564122         0.209512         1.952082
 H        -4.832008         1.091323         1.014860
 H        -5.221582        -0.690200         0.894355
 H        -4.412665        -0.324075         3.709520
