19
Iteration:  4984charge 0 multiplicity 1
 C         1.291335         0.413894         0.112287
 C        -0.195268         0.231117         0.642718
 C        -1.381635         0.098896         0.393435
 C        -2.851747         0.038509         0.424300
 O        -3.298739        -0.533438        -0.920485
 C        -3.513613         1.320260         0.714278
 C        -4.929048         1.234073         1.374300
 C        -5.100506         0.561190         2.645217
 O        -4.450868        -0.250547         3.233757
 H         1.250707         0.680306        -0.959978
 H         1.707546         1.348278         0.625333
 H         1.961172        -0.357242         0.381465
 H        -2.939002        -0.735733         1.233659
 H        -3.492369        -1.463130        -0.640676
 H        -2.908312         1.837787         1.481394
 H        -3.605212         1.951930        -0.244783
 H        -5.248890         2.318989         1.573291
 H        -5.719410         0.782440         0.787567
 H        -5.832988         1.084645         3.242620
