19
Iteration:  3524charge 0 multiplicity 1
 C         1.508027         0.285060        -0.513856
 C         0.087262        -0.029547        -0.075555
 C        -1.101092         0.000659         0.251615
 C        -2.532465        -0.222023         0.262516
 O        -3.099526         0.748434        -0.609948
 C        -3.330232         0.038997         1.544310
 C        -4.911624        -0.048387         1.521973
 C        -5.698172         0.461818         2.731156
 O        -5.261041         1.367283         3.429042
 H         1.646194        -0.008219        -1.543722
 H         1.642140         1.398942        -0.520367
 H         2.355790        -0.074901         0.054755
 H        -2.930804        -1.196238        -0.072163
 H        -2.899777         1.660594        -0.323543
 H        -2.896290        -0.663814         2.232572
 H        -3.173623         1.069263         1.912187
 H        -5.220717         0.625010         0.750929
 H        -5.209438        -1.013756         1.317228
 H        -6.809561         0.273451         2.606380
