19
Iteration:  1765charge 0 multiplicity 1
 C         1.127355         0.145589         0.790605
 C        -0.234654         0.211072         0.291865
 C        -1.317883        -0.072352        -0.208006
 C        -2.860150        -0.088539        -0.265120
 O        -3.302010         0.828221        -1.249452
 C        -3.301610         0.193066         1.184754
 C        -4.683094         0.698197         1.419253
 C        -5.252438         0.609605         2.738178
 O        -4.608393         0.280073         3.725939
 H         1.623448        -0.599926         0.090311
 H         1.570750         1.145817         0.741061
 H         1.136463        -0.179391         1.871125
 H        -3.340689        -1.054035        -0.748245
 H        -2.896887         1.690840        -1.057144
 H        -3.390667        -0.860403         1.636080
 H        -2.507725         0.455354         1.909529
 H        -4.748566         1.739509         1.015649
 H        -5.343767         0.191506         0.665875
 H        -6.259569         1.113044         2.995144
