19
Iteration:  2814charge 0 multiplicity 1
 C         1.330928         0.007830        -0.266618
 C        -0.078728        -0.081447        -0.111955
 C        -1.246588        -0.206629         0.241121
 C        -2.694999         0.052808         0.054602
 O        -2.898339         0.750676        -1.139137
 C        -3.430754         0.690368         1.283077
 C        -4.547060        -0.075211         1.848854
 C        -5.220763         0.251217         3.153123
 O        -5.637175         1.331921         3.499359
 H         1.570375         0.688133         0.534278
 H         1.694636        -0.884998         0.017269
 H         1.604321         0.629050        -1.072464
 H        -3.180825        -0.897939        -0.028990
 H        -2.010590         1.088268        -1.438228
 H        -2.736403         0.590076         2.128519
 H        -3.704063         1.730625         1.078875
 H        -5.439238        -0.169555         1.079222
 H        -4.195757        -1.198108         2.047758
 H        -5.397962        -0.795016         3.631615
