19
Iteration:  2909
 C         1.308399        -0.015371         0.096364
 C        -0.107638         0.054118        -0.077076
 C        -1.296913         0.191906        -0.115041
 C        -2.815924         0.001913         0.141595
 O        -3.471763         0.858216        -0.857154
 C        -3.270188         0.232036         1.543608
 C        -4.451406        -0.476235         1.942267
 C        -5.263386         0.374250         2.822471
 O        -5.044077         1.545992         3.036777
 H         1.596132         0.325063         1.113962
 H         1.817335        -1.063100        -0.046735
 H         1.768601         0.819564        -0.522614
 H        -3.078334        -0.999799        -0.234332
 H        -2.855555         0.959029        -1.617258
 H        -2.375222        -0.215762         1.982528
 H        -3.360018         1.294487         1.808848
 H        -5.127266        -0.574291         1.134325
 H        -4.185217        -1.407283         2.256481
 H        -6.199895        -0.169780         3.158328
