19
Iteration:  3654
 C         1.282643         0.460850         0.129125
 C        -0.037384         0.137757         0.195686
 C        -1.253909         0.065329         0.091427
 C        -2.636477        -0.270212         0.048351
 O        -3.391605         0.082311        -1.102157
 C        -3.294049         0.362717         1.322792
 C        -4.786430         0.527104         1.362615
 C        -5.407091         0.847464         2.730641
 O        -4.844540         0.736016         3.823194
 H         1.562855         0.638734        -0.882020
 H         1.603356         1.341761         0.721014
 H         1.865304        -0.359456         0.469066
 H        -2.870154        -1.329129         0.135508
 H        -3.190503        -0.373080        -1.937094
 H        -3.063221        -0.179152         2.187866
 H        -2.724724         1.275527         1.404727
 H        -5.195626         1.149179         0.506605
 H        -5.204591        -0.436252         0.875998
 H        -6.413922         1.340930         2.600651
