19
Iteration:  4012
 C         1.291320         0.626902         0.086201
 C        -0.088310         0.219024         0.333086
 C        -1.297321        -0.065879         0.250831
 C        -2.720947        -0.131146         0.478768
 O        -3.557694        -0.379073        -0.618115
 C        -3.266967         1.291497         0.931183
 C        -4.791788         1.179571         1.252822
 C        -5.295353         0.473792         2.521122
 O        -4.630511        -0.137992         3.292773
 H         1.492263         1.688954         0.086413
 H         1.946026         0.203775         0.919073
 H         1.576356         0.252809        -0.873563
 H        -2.970023        -0.800044         1.275823
 H        -3.704760        -1.310715        -0.763600
 H        -2.748161         1.474008         1.917561
 H        -2.823049         2.026589         0.155298
 H        -5.059911         2.236537         1.224781
 H        -5.261191         0.619358         0.467326
 H        -6.402793         0.444692         2.726644
