19
Iteration:  2317
 C         0.947188         0.278327         0.671198
 C        -0.440653         0.158513         0.151894
 C        -1.540173         0.079069        -0.409310
 C        -2.946045         0.034925        -0.114221
 O        -3.608727         1.264952        -0.078740
 C        -3.155870        -0.907646         1.266489
 C        -4.545212        -0.695480         1.922497
 C        -4.875966         0.747246         2.130029
 O        -4.284832         1.692570         2.670468
 H         1.440051         1.147803         0.238036
 H         0.811039         0.646010         1.721291
 H         1.592112        -0.615653         0.481296
 H        -3.511536        -0.564583        -0.819546
 H        -3.367382         1.876101         0.638108
 H        -2.906001        -1.990128         1.202794
 H        -2.388769        -0.420811         1.873551
 H        -5.212319        -1.295425         1.284020
 H        -4.487118        -1.440444         2.759949
 H        -5.986449         0.798217         1.878118
