19
Iteration:   404
 C         1.464310        -0.233537        -0.542706
 C         0.092885        -0.098055        -0.009294
 C        -1.123230        -0.139348         0.095535
 C        -2.549765         0.157311         0.200556
 O        -2.812321         1.331295        -0.747565
 C        -3.153510         0.542122         1.612430
 C        -4.720228         0.608228         1.599162
 C        -5.335460         0.642752         3.013110
 O        -6.242356        -0.059955         3.360932
 H         2.245943         0.277975         0.090419
 H         1.731300        -1.268430        -0.649283
 H         1.494179         0.208865        -1.585230
 H        -3.067533        -0.786796        -0.034249
 H        -1.923488         1.281479        -1.178457
 H        -2.733128        -0.295865         2.358097
 H        -2.622331         1.439001         1.842884
 H        -5.102406         1.484431         1.151989
 H        -5.205579        -0.128075         1.075068
 H        -5.079943         1.429427         3.669680
