19
Iteration:  4501
 C         1.251336         0.432342        -0.300503
 C        -0.115079         0.154326         0.154343
 C        -1.254521        -0.057263         0.527433
 C        -2.667328        -0.115589         0.596824
 O        -3.166773        -0.143052        -0.768048
 C        -3.304684         1.191616         1.162786
 C        -4.879693         1.252679         1.440781
 C        -5.474771         0.513931         2.576126
 O        -4.811844        -0.235479         3.276441
 H         1.924145         0.507201         0.553692
 H         1.652750        -0.209773        -1.139793
 H         1.221838         1.485608        -0.539938
 H        -3.047603        -1.015696         1.077090
 H        -2.594442        -0.806332        -1.250831
 H        -2.922089         1.487247         2.148477
 H        -3.079400         1.897529         0.371696
 H        -5.207815         2.284609         1.658881
 H        -5.364197         0.968959         0.415917
 H        -6.583904         0.679625         2.859903
