19
Iteration:  1791charge 0 multiplicity 1
 C         1.107844         0.150974         0.771224
 C        -0.211529         0.079097         0.337940
 C        -1.345373        -0.008715         0.011911
 C        -2.824083        -0.100338        -0.321635
 O        -3.209626         0.839022        -1.374381
 C        -3.449590         0.167940         1.113238
 C        -4.865690         0.771821         1.383006
 C        -5.204941         0.568507         2.823901
 O        -4.468547         0.258547         3.747463
 H         1.703826        -0.455361         0.150917
 H         1.410651         1.297471         0.700788
 H         1.092658        -0.265020         1.764367
 H        -3.046136        -1.018333        -0.892997
 H        -2.972339         1.775505        -1.211587
 H        -3.249290        -0.535744         1.876909
 H        -2.793453         0.911326         1.561251
 H        -4.762153         1.808441         0.953371
 H        -5.717340         0.316277         0.726040
 H        -6.282008         0.780594         3.129149
