19
Iteration:  3681
 C         1.332602         0.396009         0.287373
 C        -0.189576         0.457767         0.246307
 C        -1.267464        -0.075133        -0.045455
 C        -2.790655        -0.348573         0.122739
 O        -3.470781         0.018879        -1.094472
 C        -3.293437         0.520617         1.298743
 C        -4.696876         0.635904         1.362224
 C        -5.338831         0.753657         2.681842
 O        -4.687626         0.664309         3.712806
 H         1.730265         0.498032        -0.776415
 H         1.817718         1.056118         1.018408
 H         1.478774        -0.708944         0.532068
 H        -3.211072        -1.404789         0.352556
 H        -3.005616        -0.361125        -1.860394
 H        -2.834666         0.191802         2.318887
 H        -2.756585         1.484867         1.108984
 H        -5.137537         1.345695         0.662327
 H        -5.168945        -0.230684         0.850339
 H        -6.448433         0.849897         2.634311
