19
Iteration:  1128charge 0 multiplicity 1
 C         1.572865        -0.159676        -0.344523
 C         0.219298        -0.128095        -0.108787
 C        -1.017551         0.122067         0.028563
 C        -2.487963         0.165989         0.011610
 O        -2.976831         1.272926        -0.648538
 C        -3.330044         0.242472         1.460901
 C        -4.847009         0.412059         1.514918
 C        -5.350688         0.107155         2.912992
 O        -6.114630         0.715010         3.626401
 H         1.980143        -0.831768         0.345938
 H         1.744952        -0.475594        -1.410570
 H         2.021179         0.807048        -0.230795
 H        -2.734927        -0.818024        -0.451233
 H        -2.390179         2.051901        -0.508565
 H        -2.936889        -0.701539         1.797344
 H        -2.760773         0.876877         2.091870
 H        -5.278749         1.204063         1.056430
 H        -5.332016        -0.376956         0.870764
 H        -4.991654        -0.918982         3.270024
