19
Iteration:  3312charge 0 multiplicity 1
 C         1.306639        -0.035421         0.075002
 C        -0.168140        -0.193221         0.020581
 C        -1.361477         0.107231        -0.106234
 C        -2.749719         0.186990        -0.071620
 O        -3.648252         1.337112        -0.492943
 C        -2.920008        -0.012491         1.494757
 C        -4.325448        -0.626979         2.034918
 C        -5.369343         0.391590         2.439476
 O        -5.104358         1.463449         2.962792
 H         1.923189        -1.036402         0.146554
 H         1.670716         0.612142        -0.804373
 H         1.460650         0.477332         1.063546
 H        -3.229576        -0.585924        -0.707926
 H        -3.688081         2.057262         0.152738
 H        -2.366067        -0.887888         1.834136
 H        -2.576266         0.839861         2.072085
 H        -4.782326        -1.205520         1.268258
 H        -3.912420        -1.313564         2.854424
 H        -6.429665         0.212646         2.115669
