19
Iteration:   527charge 0 multiplicity 1
 C         1.414047        -0.500625        -0.087397
 C        -0.019699        -0.142370        -0.062692
 C        -1.228597         0.163663        -0.012864
 C        -2.622376         0.397098         0.074610
 O        -3.053715         1.393511        -0.884947
 C        -3.126773         0.565248         1.554270
 C        -4.629693         0.644429         1.577667
 C        -5.193387         0.645070         2.990208
 O        -5.877252        -0.295044         3.382458
 H         1.937580        -0.155099         0.860132
 H         1.459037        -1.601276        -0.029396
 H         2.018564        -0.169172        -0.956102
 H        -3.315652        -0.482432        -0.163393
 H        -2.662349         1.118071        -1.755816
 H        -2.842757        -0.442009         2.088447
 H        -2.567083         1.457372         1.919682
 H        -4.859768         1.624835         1.143571
 H        -5.250948         0.021821         1.010327
 H        -5.172374         1.522062         3.687880
