19
Iteration:  2888charge 0 multiplicity 1
 C         1.344694         0.086178        -0.017230
 C        -0.087645        -0.067707         0.021887
 C        -1.325795        -0.052788         0.056688
 C        -2.758043        -0.014562        -0.030018
 O        -3.380762         0.941571        -0.835379
 C        -3.180633         0.367710         1.435370
 C        -4.529938        -0.433489         1.867187
 C        -5.296142         0.338060         2.966808
 O        -5.170868         1.525445         3.099982
 H         1.680482         0.470680         0.988057
 H         1.805252        -1.028066        -0.023346
 H         1.730612         0.910361        -0.726470
 H        -3.195434        -1.031370        -0.367761
 H        -3.260393         0.926382        -1.784113
 H        -2.325029         0.392986         2.132691
 H        -3.505090         1.380628         1.134334
 H        -5.039620        -0.723089         1.025939
 H        -4.216618        -1.370407         2.314087
 H        -5.862816        -0.298083         3.628614
