19
Iteration:  2488
 C         1.208586         0.710491        -0.032346
 C        -0.207572         0.264498         0.140798
 C        -1.321269        -0.107632         0.494936
 C        -2.787730        -0.329121         0.079037
 O        -3.243724         0.852589        -0.548912
 C        -3.690070        -0.800938         1.292507
 C        -5.108999        -0.180111         1.404177
 C        -5.120307         0.926136         2.531540
 O        -4.208384         1.324005         3.235476
 H         1.035517         1.774112        -0.265437
 H         1.509176         0.553436         1.048736
 H         1.768130         0.157578        -0.800732
 H        -2.757529        -0.974913        -0.818633
 H        -2.490534         1.268828        -1.045582
 H        -3.696617        -1.886998         1.258955
 H        -3.151792        -0.238394         2.113420
 H        -5.587820         0.359756         0.473154
 H        -5.872454        -1.117477         1.487393
 H        -6.171716         1.246867         2.820608
