19
Iteration:  1473charge 0 multiplicity 1
 C         1.564888        -0.220186        -0.185183
 C         0.132251         0.071316        -0.122551
 C        -1.124750         0.087991         0.080236
 C        -2.604301         0.185018         0.128472
 O        -3.065570         1.305676        -0.669650
 C        -3.230412         0.330992         1.646070
 C        -4.789709         0.276383         1.389754
 C        -5.492674        -0.031030         2.724938
 O        -5.707957         0.793566         3.538352
 H         1.689882        -1.295402        -0.169442
 H         1.778001         0.179653        -1.146399
 H         2.226911         0.133222         0.587562
 H        -2.917656        -0.685639        -0.401550
 H        -3.249754         0.863964        -1.520031
 H        -2.748794        -0.359072         2.338054
 H        -3.201698         1.395212         1.843879
 H        -5.059030         1.247340         0.965917
 H        -5.112856        -0.523700         0.741992
 H        -5.512697        -1.172674         3.106831
