19
Iteration:  1267charge 0 multiplicity 1
 C         1.377683        -0.159303         0.224646
 C         0.003831         0.118621        -0.049245
 C        -1.184603         0.174404        -0.148953
 C        -2.671465         0.265169        -0.199491
 O        -3.066775         1.504633        -0.530007
 C        -3.278311        -0.277710         1.208310
 C        -4.872997        -0.136650         1.434086
 C        -4.993025         0.207553         2.964326
 O        -5.665616         1.055742         3.515264
 H         1.439811        -1.108781         0.785077
 H         1.973493        -0.268638        -0.729091
 H         1.892584         0.570982         0.858192
 H        -3.099682        -0.342263        -0.995684
 H        -3.422259         1.576535        -1.455151
 H        -2.935037        -1.313539         1.076023
 H        -2.813640         0.168092         2.061715
 H        -5.286026         0.646880         0.789418
 H        -5.267091        -1.023741         1.140294
 H        -4.358883        -0.384212         3.683453
