19
Iteration:  2240charge 0 multiplicity 1
 C         1.335085         0.270734         0.084991
 C        -0.154864         0.137388         0.236015
 C        -1.361370         0.142509         0.045284
 C        -2.844793         0.007504         0.147614
 O        -3.539007         1.152658        -0.243569
 C        -3.279707        -0.684629         1.449338
 C        -4.825295        -0.576150         1.622930
 C        -5.243568         0.678804         2.363469
 O        -4.485904         1.566602         2.737021
 H         1.515370         0.794463        -0.841362
 H         1.816277         0.687947         0.975562
 H         1.609367        -0.787246         0.023511
 H        -3.091730        -0.769117        -0.557709
 H        -3.432340         1.755688         0.542651
 H        -2.851754        -1.674167         1.535003
 H        -2.677980        -0.225802         2.221627
 H        -5.267758        -0.630909         0.603622
 H        -5.343335        -1.480978         2.103435
 H        -6.378875         0.902363         2.266233
