19
Iteration:  4725charge 0 multiplicity 1
 C         1.206137         0.147059         0.314437
 C        -0.217787         0.177401         0.453388
 C        -1.448703         0.186211         0.343600
 C        -2.896268         0.081505         0.125346
 O        -3.198321         0.024196        -1.199416
 C        -3.598284         1.091576         0.979708
 C        -5.047891         0.714265         1.306449
 C        -5.165063         0.321170         2.785720
 O        -4.202593         0.334383         3.502521
 H         1.814147        -0.772516         0.204338
 H         1.561642         0.644541        -0.555512
 H         1.735982         0.839050         1.049496
 H        -3.133462        -0.929984         0.521550
 H        -2.916816        -0.793450        -1.575248
 H        -3.021973         0.977533         1.987138
 H        -3.286873         2.152489         0.759847
 H        -5.739512         1.557084         1.219728
 H        -5.378090        -0.329620         0.920913
 H        -6.189120         0.012909         3.083810
