19
Iteration:  3928charge 0 multiplicity 1
 C         1.204404         0.116941         0.497051
 C        -0.205577         0.366821         0.208206
 C        -1.434637         0.436543         0.143161
 C        -2.790383         0.047321         0.430955
 O        -3.354285        -0.678870        -0.644084
 C        -3.572462         1.287288         0.790941
 C        -5.063951         1.308583         1.384535
 C        -5.160642         0.359867         2.589789
 O        -4.111084        -0.047063         3.131259
 H         1.789371         1.040467         0.297394
 H         1.427434        -0.185684         1.546778
 H         1.634851        -0.641336        -0.195451
 H        -2.665229        -0.671802         1.315167
 H        -3.606598        -0.260367        -1.489371
 H        -2.953115         1.813987         1.502712
 H        -3.466742         1.942325        -0.111301
 H        -5.615601         2.266333         1.428785
 H        -5.642770         0.776472         0.506492
 H        -6.155734         0.143437         3.039048
