19
Iteration:  4641charge 0 multiplicity 1
 C         1.255360         0.208931         0.410465
 C        -0.142156         0.197755         0.213001
 C        -1.285032         0.299925        -0.063213
 C        -2.721764         0.130846         0.084983
 O        -3.485274        -0.230278        -1.060253
 C        -3.393573         1.276607         0.906818
 C        -4.719045         0.809040         1.420857
 C        -5.253452         0.329657         2.782768
 O        -4.653394         0.115570         3.807122
 H         1.266182        -0.690931         1.066020
 H         1.795450         0.039229        -0.537404
 H         1.679085         1.010369         1.055417
 H        -2.730077        -0.796365         0.792974
 H        -2.935028        -0.158791        -1.888804
 H        -2.542850         1.185073         1.655689
 H        -3.204568         2.194366         0.322305
 H        -5.517248         1.575981         1.186883
 H        -5.174302         0.056475         0.833906
 H        -6.302228         0.097202         2.674293
