19
Iteration:  4102
 C         1.175093         0.685934        -0.488526
 C         0.018749         0.276952         0.217660
 C        -1.095676        -0.165166         0.567378
 C        -2.584369        -0.216349         0.642077
 O        -3.231766        -0.375912        -0.631816
 C        -3.081857         1.133508         1.297736
 C        -4.641614         1.265153         1.387931
 C        -5.617672         0.604734         2.404498
 O        -5.212315        -0.167680         3.294281
 H         1.389274         1.706324        -0.139337
 H         2.110253         0.124646        -0.329821
 H         0.920509         0.805866        -1.541883
 H        -2.886746        -1.094189         1.214146
 H        -3.437590        -1.337011        -0.664594
 H        -2.552855         1.357904         2.233720
 H        -2.856326         1.909457         0.540898
 H        -4.911131         2.320158         1.232762
 H        -5.043292         0.818335         0.444059
 H        -6.701255         0.752732         2.257125
