19
Iteration:  3957
 C         1.282730         0.297810         0.474911
 C        -0.115440         0.332050         0.040673
 C        -1.354017         0.174395         0.099390
 C        -2.766116         0.168719         0.412181
 O        -3.463613        -0.767198        -0.658379
 C        -3.499819         1.439799         0.845507
 C        -4.957647         1.274334         1.375571
 C        -5.176854         0.366276         2.555682
 O        -4.361757        -0.131802         3.291427
 H         1.689183         1.289625         0.426627
 H         1.378648        -0.148911         1.506459
 H         1.871140        -0.351947        -0.136126
 H        -2.788658        -0.431480         1.313738
 H        -3.178385        -0.591277        -1.571719
 H        -3.017372         1.694846         1.809841
 H        -3.418656         2.188198         0.017122
 H        -5.323915         2.281947         1.668519
 H        -5.667119         1.081263         0.540431
 H        -6.281025         0.409384         2.818328
