19
Iteration:  4640charge 0 multiplicity 1
 C         1.247146         0.207114         0.400991
 C        -0.147449         0.190879         0.215137
 C        -1.284560         0.308760        -0.058582
 C        -2.719578         0.123409         0.083056
 O        -3.481293        -0.229715        -1.058870
 C        -3.389101         1.261789         0.902868
 C        -4.720635         0.816594         1.419004
 C        -5.251920         0.327882         2.779145
 O        -4.654945         0.114960         3.812622
 H         1.266164        -0.681319         1.086643
 H         1.769588         0.070969        -0.529395
 H         1.670319         1.051589         1.046897
 H        -2.705293        -0.783331         0.819925
 H        -2.944069        -0.147310        -1.875397
 H        -2.538032         1.197819         1.708294
 H        -3.176071         2.215874         0.337125
 H        -5.506415         1.602748         1.168878
 H        -5.177059         0.086660         0.798336
 H        -6.286611         0.094293         2.658274
