19
Iteration:   190charge 0 multiplicity 1
 C         1.479673        -0.037415         0.078644
 C        -0.023577         0.013954        -0.073710
 C        -1.254636        -0.050918        -0.149397
 C        -2.817579         0.184422        -0.098497
 O        -3.054026         1.528203        -0.677065
 C        -3.162920        -0.207881         1.283866
 C        -4.593898        -0.136389         1.661938
 C        -4.930278         0.672891         2.922697
 O        -6.019410         0.659583         3.419655
 H         1.727472         0.408849         1.056565
 H         1.795433        -1.039727         0.062475
 H         1.985504         0.484017        -0.733048
 H        -3.297818        -0.375930        -0.843335
 H        -2.662095         2.074864         0.058872
 H        -2.801120        -1.278876         1.451531
 H        -2.633862         0.409041         2.111759
 H        -5.105165         0.500139         1.029061
 H        -5.225785        -1.052207         1.496878
 H        -4.007336         1.367115         3.089174
