19
Iteration:  1548
 C         1.477566        -0.262134        -0.381276
 C         0.146275         0.057622         0.037233
 C        -1.081854         0.187183         0.214446
 C        -2.522799         0.254647         0.251283
 O        -3.097334         0.982896        -0.798653
 C        -3.240686         0.573238         1.674529
 C        -4.742523         0.333338         1.426141
 C        -5.673591         0.097419         2.545071
 O        -5.599247         0.610969         3.617639
 H         1.502327        -1.380500        -0.617479
 H         1.712507         0.404308        -1.220030
 H         2.205748        -0.083748         0.466135
 H        -2.742303        -0.828381        -0.166691
 H        -2.900487         1.948592        -0.760013
 H        -2.739749        -0.330933         2.232722
 H        -2.951054         1.648612         1.924353
 H        -5.062452         1.275747         0.907849
 H        -4.937598        -0.435552         0.718715
 H        -6.308978        -0.857763         2.391002
