19
Iteration:  3413
 C         1.429852        -0.167846        -0.084594
 C         0.006111        -0.066737        -0.166355
 C        -1.209032         0.282027        -0.063272
 C        -2.765855         0.104478         0.127248
 O        -3.503876         1.270541        -0.505725
 C        -3.079738         0.027832         1.594388
 C        -4.469678        -0.548594         1.877850
 C        -5.357673         0.263002         2.839222
 O        -5.346321         1.481212         2.862460
 H         1.828005        -1.010679        -0.651189
 H         1.928413         0.792202        -0.526070
 H         1.628632        -0.152220         1.000689
 H        -3.122143        -0.796932        -0.373641
 H        -2.824848         1.859764        -0.880996
 H        -2.264529        -0.471629         2.117221
 H        -3.192656         1.032935         2.038363
 H        -5.045307        -0.324538         0.982197
 H        -4.723172        -1.632191         2.052489
 H        -6.279119        -0.263161         3.200206
