19
Iteration:  4789
 C         1.144904         0.319510         0.294565
 C        -0.291511        -0.015997         0.300429
 C        -1.479992         0.001716         0.469545
 C        -2.874177        -0.034887         0.185485
 O        -3.009297        -0.085210        -1.308382
 C        -3.637489         1.312194         0.807632
 C        -5.017124         0.970571         1.461406
 C        -5.030692         0.118290         2.727688
 O        -4.314220         0.341311         3.698127
 H         1.846377        -0.434637        -0.159062
 H         1.123458         1.279503        -0.342591
 H         1.198721         0.722998         1.378394
 H        -3.553778        -0.894868         0.608963
 H        -2.192482        -0.607211        -1.431480
 H        -2.999758         1.717166         1.658752
 H        -3.727700         1.936923        -0.110114
 H        -5.570798         1.853114         1.799676
 H        -5.796543         0.641308         0.699321
 H        -5.892949        -0.660107         2.876523
