19
Iteration:  4046charge 0 multiplicity 1
 C         1.210204         0.724534        -0.132736
 C        -0.143440         0.193360         0.155204
 C        -1.344082        -0.056865         0.489439
 C        -2.805931        -0.286450         0.606659
 O        -3.235958        -0.436454        -0.768055
 C        -3.282174         1.112522         1.325384
 C        -4.711677         1.273445         1.338092
 C        -5.445350         0.565509         2.421756
 O        -4.665097        -0.047418         3.173980
 H         1.323268         1.778456         0.068452
 H         1.957353         0.137036         0.483028
 H         1.550885         0.504144        -1.122821
 H        -3.033785        -1.206287         1.115673
 H        -3.678167        -1.283488        -0.716389
 H        -2.897964         1.229958         2.350741
 H        -2.794792         1.947476         0.740908
 H        -5.007849         2.328339         1.321764
 H        -5.170358         0.889512         0.419576
 H        -6.554470         0.790726         2.572444
