19
Iteration:  2452charge 0 multiplicity 1
 C         1.184631         0.601113         0.147896
 C        -0.200202         0.264505         0.358340
 C        -1.402695         0.000915         0.167312
 C        -2.848888        -0.213329        -0.000896
 O        -3.500857         0.868861        -0.543657
 C        -3.567572        -0.845472         1.354619
 C        -4.920768        -0.211301         1.433439
 C        -5.048288         0.974540         2.417284
 O        -4.160308         1.268735         3.169444
 H         1.240811         1.719364        -0.189262
 H         1.795589         0.709627         1.063121
 H         1.898062         0.034528        -0.573780
 H        -2.963214        -1.105624        -0.598637
 H        -2.735224         1.419897        -0.877151
 H        -3.665015        -1.938020         1.295267
 H        -3.129242        -0.747067         2.347866
 H        -5.525027         0.030328         0.542928
 H        -5.619116        -0.871223         2.153116
 H        -6.059007         1.465574         2.462285
