19
Iteration:  1952
 C         1.464477        -0.317103         0.258825
 C         0.007982         0.114394         0.103497
 C        -1.218317         0.231218        -0.019402
 C        -2.649545         0.192310        -0.047971
 O        -3.225872         0.904894        -1.163105
 C        -3.421527         0.607788         1.335344
 C        -4.831091         0.170824         1.486800
 C        -5.453491         0.161596         2.790999
 O        -5.057353         0.802805         3.717828
 H         1.912461        -0.757395        -0.613497
 H         2.178462         0.366112         0.750204
 H         1.496979        -1.063415         1.064406
 H        -2.972598        -0.857059        -0.101903
 H        -2.878612         1.795092        -1.159993
 H        -2.880010         0.102713         2.142083
 H        -3.329884         1.692938         1.574207
 H        -5.449203         0.523471         0.684808
 H        -4.868908        -0.914559         1.313346
 H        -6.464192        -0.377764         2.741465
