19
Iteration:  3130charge 0 multiplicity 1
 C         1.097453         0.784385        -0.416167
 C        -0.144664         0.126994        -0.139508
 C        -1.249367        -0.295631         0.198886
 C        -2.749590        -0.339409         0.498085
 O        -3.183516         1.102690         0.256884
 C        -3.389704        -0.914052         1.778770
 C        -4.897619        -0.589879         1.797708
 C        -5.302306         0.853736         2.084138
 O        -4.597657         1.780418         2.440769
 H         1.970699         0.456361         0.036229
 H         1.324203         0.782739        -1.503954
 H         1.003405         1.825454        -0.154218
 H        -3.112618        -0.991567        -0.344760
 H        -2.392153         1.520974        -0.156753
 H        -3.323480        -1.981613         1.933370
 H        -2.878811        -0.374670         2.583458
 H        -5.297628        -0.785177         0.719983
 H        -5.707706        -1.243280         2.292570
 H        -6.444075         0.933039         1.985694
