19
Iteration:  1411charge 0 multiplicity 1
 C         1.427525         0.005834         0.032027
 C        -0.038047        -0.125002         0.084342
 C        -1.268737        -0.097721        -0.073833
 C        -2.712027         0.197534        -0.129707
 O        -2.972876         1.499604        -0.716389
 C        -3.272354        -0.001911         1.314631
 C        -4.796540         0.065717         1.474692
 C        -5.145973         0.068578         2.959069
 O        -5.719526         0.983829         3.516560
 H         2.001867        -0.907997         0.094427
 H         1.717059         0.448901        -1.010045
 H         1.784387         0.747681         0.758419
 H        -3.137329        -0.615977        -0.828684
 H        -2.217221         2.108317        -0.562751
 H        -2.854834        -0.998074         1.602521
 H        -2.635188         0.644553         1.921061
 H        -5.125242         0.924236         0.887289
 H        -5.219019        -0.874654         0.966061
 H        -4.594468        -0.792310         3.612460
