19
Iteration:   223
 C         1.464995        -0.165139        -0.037479
 C         0.024770        -0.061938         0.019762
 C        -1.111983         0.243315        -0.182676
 C        -2.603638         0.140560        -0.099253
 O        -3.236641         1.406405        -0.535405
 C        -3.157225        -0.141592         1.297053
 C        -4.652338        -0.041796         1.499645
 C        -4.981894         0.658998         2.896735
 O        -6.068696         0.666272         3.459078
 H         1.965993         0.286661         0.822367
 H         1.796688        -1.169177        -0.034076
 H         1.868044         0.371623        -0.875765
 H        -2.792416        -0.686889        -0.772159
 H        -3.086777         2.115837         0.097908
 H        -2.649790        -1.134030         1.585615
 H        -2.851742         0.822377         1.916896
 H        -5.176833         0.431736         0.762468
 H        -5.039021        -1.106703         1.665765
 H        -3.984704         1.084349         3.498107
