19
Iteration:  1557charge 0 multiplicity 1
 C         1.485607        -0.234044        -0.398466
 C         0.101732         0.077540         0.057875
 C        -1.090047         0.140073         0.246659
 C        -2.530468         0.205848         0.291460
 O        -3.097634         1.014235        -0.837892
 C        -3.215471         0.553067         1.627546
 C        -4.766335         0.353648         1.351049
 C        -5.670883         0.069121         2.539958
 O        -5.538023         0.624311         3.640713
 H         1.598850        -1.361372        -0.712955
 H         1.976964         0.281217        -1.226292
 H         2.181516        -0.050233         0.513295
 H        -2.978905        -0.822666         0.118451
 H        -2.966207         1.881638        -0.405179
 H        -2.775120         0.020683         2.586096
 H        -3.115591         1.574367         2.142697
 H        -5.161336         1.268738         0.795669
 H        -4.930715        -0.494218         0.629499
 H        -6.443576        -0.740687         2.303727
