19
Iteration:  2213charge 0 multiplicity 1
 C         1.375206         0.290199        -0.180918
 C        -0.068058         0.110026         0.250421
 C        -1.292758         0.097757         0.394046
 C        -2.751313        -0.055199         0.144780
 O        -3.444495         1.095025        -0.290125
 C        -3.346946        -0.645748         1.389030
 C        -4.854596        -0.428138         1.501245
 C        -5.353322         0.651750         2.441099
 O        -4.673845         1.581762         2.854152
 H         1.368777         0.742203        -1.192602
 H         1.945481         0.828407         0.592459
 H         1.738364        -0.734773        -0.164966
 H        -2.862483        -0.865384        -0.623756
 H        -2.992228         1.791098         0.261476
 H        -2.982234        -1.677903         1.568335
 H        -2.807753        -0.079646         2.205371
 H        -5.339030        -0.511326         0.504084
 H        -5.219646        -1.305291         1.967751
 H        -6.454716         0.528929         2.752605
