19
Iteration:  1374
 C         1.375179        -0.009020         0.283116
 C        -0.095730         0.109107        -0.211642
 C        -1.265743        -0.147084        -0.268762
 C        -2.668251         0.127600        -0.274705
 O        -2.928639         1.491852        -0.613985
 C        -3.282331        -0.264748         1.225484
 C        -4.714757         0.063705         1.564213
 C        -5.087203         0.176625         3.038221
 O        -5.744215         1.054259         3.513402
 H         1.644344        -1.037858         0.629516
 H         1.982569         0.288939        -0.548937
 H         1.551849         0.717722         1.083573
 H        -3.190289        -0.354453        -1.142860
 H        -2.945686         2.056250         0.208940
 H        -2.922580        -1.196141         1.647720
 H        -2.725333         0.478295         1.909356
 H        -5.097744         0.996625         0.988201
 H        -5.194402        -0.886989         1.042664
 H        -4.495200        -0.695245         3.685162
