19
Iteration:  4874
 C         1.248775         0.332488         0.590203
 C        -0.181313         0.226135         0.363505
 C        -1.390764         0.145999         0.118153
 C        -2.870970        -0.031022         0.184185
 O        -3.633093        -0.304433        -0.936804
 C        -3.414393         1.295388         0.936395
 C        -4.906952         0.894359         1.169716
 C        -5.034642         0.229976         2.582124
 O        -4.223980         0.227822         3.499638
 H         1.624359        -0.485074        -0.075010
 H         1.783991         1.301073         0.354693
 H         1.609560        -0.176557         1.431578
 H        -2.939074        -0.810263         0.927464
 H        -3.789556         0.538085        -1.373586
 H        -2.805283         1.425765         1.832333
 H        -3.061914         2.177012         0.311167
 H        -5.619470         1.795392         1.231186
 H        -5.391681         0.218301         0.455294
 H        -6.083577        -0.175975         2.740014
