19
Iteration:   453
 C         1.455350        -0.386258        -0.420386
 C         0.038031        -0.168894        -0.180864
 C        -1.121494         0.058964         0.242881
 C        -2.556685         0.372750         0.258768
 O        -3.055298         1.179989        -0.764967
 C        -3.167678         0.549700         1.729250
 C        -4.631656         0.712233         1.533828
 C        -5.253064         0.672254         2.852001
 O        -6.025433        -0.181227         3.264965
 H         2.060251         0.040781         0.402105
 H         1.687927        -1.526401        -0.426853
 H         1.817263         0.007007        -1.376453
 H        -2.962666        -0.608353         0.117292
 H        -3.060286         2.054948        -0.348887
 H        -2.893953        -0.349584         2.165197
 H        -2.546634         1.388686         2.157996
 H        -4.794773         1.585648         0.842757
 H        -5.209771        -0.050223         0.848456
 H        -4.993043         1.478706         3.602557
