19
Iteration:  1200
 C         1.459011        -0.144442        -0.033020
 C        -0.060160        -0.053473         0.100600
 C        -1.289672         0.047956        -0.206196
 C        -2.723278         0.221712        -0.076612
 O        -3.153565         1.440400        -0.560561
 C        -3.077000         0.135078         1.499746
 C        -4.576553         0.061393         1.486863
 C        -5.177510         0.048608         2.803188
 O        -5.785723         0.907408         3.410237
 H         1.864620        -1.016179         0.589270
 H         1.671971        -0.289400        -1.096020
 H         2.001750         0.792050         0.256442
 H        -3.262526        -0.679855        -0.530402
 H        -2.359300         1.953143        -0.750502
 H        -2.669036        -0.644944         2.168324
 H        -2.730909         1.061514         2.073543
 H        -4.967572         0.926889         0.791990
 H        -5.004333        -0.736028         0.925654
 H        -5.207362        -0.958229         3.259223
