19
Iteration:  1967charge 0 multiplicity 1
 C         1.391342        -0.336419         0.168113
 C         0.073712         0.137429         0.163454
 C        -1.146209         0.192264        -0.003462
 C        -2.693755         0.256492         0.082387
 O        -3.257023         0.872313        -1.050825
 C        -3.276878         0.622134         1.428932
 C        -4.832666         0.078099         1.373202
 C        -5.558714         0.171305         2.737248
 O        -5.071366         0.879267         3.625363
 H         1.566172        -0.563738        -0.884593
 H         2.081952         0.517831         0.423175
 H         1.517667        -1.216504         0.807629
 H        -2.884284        -0.816726        -0.188406
 H        -2.971351         1.810448        -1.088005
 H        -2.849074        -0.058537         2.155980
 H        -3.207037         1.697790         1.660961
 H        -5.479863         0.576397         0.637022
 H        -4.793594        -0.950730         1.034497
 H        -6.214428        -0.709295         3.024436
