19
Iteration:  1254
 C         1.441485        -0.169838         0.181709
 C        -0.017992         0.049676        -0.111315
 C        -1.193442         0.219313        -0.083558
 C        -2.642812         0.174934        -0.124981
 O        -3.094733         1.597373        -0.548037
 C        -3.300787        -0.191899         1.192965
 C        -4.843686        -0.094844         1.483342
 C        -5.026372         0.158013         2.895932
 O        -5.671645         1.034624         3.488355
 H         1.480374        -1.134856         0.790575
 H         2.096180        -0.310271        -0.652462
 H         1.778852         0.708650         0.786995
 H        -2.780051        -0.737459        -0.789730
 H        -3.298006         1.536999        -1.477264
 H        -3.145496        -1.217509         1.473930
 H        -2.650006         0.227200         1.951420
 H        -5.535850         0.600742         0.905842
 H        -5.335031        -1.075101         1.552777
 H        -4.368615        -0.657148         3.380555
