19
Iteration:   285charge 0 multiplicity 1
 C         1.444448        -0.271147        -0.182290
 C         0.039824         0.140688        -0.184763
 C        -1.158973         0.251768        -0.122960
 C        -2.568538         0.088386         0.018503
 O        -3.100658         1.322989        -0.519910
 C        -3.105436        -0.023492         1.521025
 C        -4.566633         0.147559         1.700609
 C        -5.110921         0.679514         2.937377
 O        -6.210133         0.444982         3.300476
 H         1.955521         0.153357         0.753986
 H         1.513021        -1.345428        -0.189435
 H         1.966876         0.074245        -1.132929
 H        -3.120369        -0.681844        -0.600661
 H        -2.372679         1.745774        -0.973821
 H        -2.794907        -1.002386         1.807890
 H        -2.454485         0.626333         2.091152
 H        -4.783201         0.886994         0.807396
 H        -5.199246        -0.704970         1.387926
 H        -4.468268         1.561953         3.487314
