19
Iteration:  3878
 C         1.196531         0.091424         0.374430
 C        -0.215101         0.234954         0.507533
 C        -1.424456         0.197783         0.452582
 C        -2.857906         0.201102         0.408000
 O        -3.412612        -0.444076        -0.764091
 C        -3.771860         1.494603         0.588825
 C        -5.059272         0.957386         1.247217
 C        -4.979178         0.426435         2.687438
 O        -3.953761         0.003927         3.180030
 H         1.748337         0.925553        -0.114013
 H         1.645900        -0.015667         1.325533
 H         1.420477        -0.803761        -0.257808
 H        -3.011066        -0.342723         1.315181
 H        -2.884833        -0.239160        -1.554279
 H        -3.435562         2.332743         1.284517
 H        -3.948594         2.132492        -0.284590
 H        -5.886293         1.576561         0.819653
 H        -5.451629        -0.034460         0.809454
 H        -5.973721        -0.034786         2.989275
