19
Iteration:  4926charge 0 multiplicity 1
 C         1.220254         0.267759         0.586065
 C        -0.129156         0.294225         0.003760
 C        -1.317814         0.188429         0.035828
 C        -2.739110         0.053894         0.323866
 O        -3.457922        -0.443828        -0.859785
 C        -3.552447         1.273953         0.867303
 C        -4.986400         1.076667         1.288003
 C        -5.186648         0.478085         2.750823
 O        -4.310621        -0.083851         3.418339
 H         2.151863        -0.037919         0.097797
 H         1.342248         1.309136         0.905681
 H         1.227843        -0.345864         1.465727
 H        -2.636807        -0.741683         1.114814
 H        -2.770631        -0.484207        -1.561464
 H        -3.039191         1.572785         1.801308
 H        -3.362936         2.110666         0.172424
 H        -5.482408         2.060483         1.157140
 H        -5.630195         0.470765         0.671777
 H        -6.196801         0.622555         3.134044
