19
Iteration:  1908charge 0 multiplicity 1
 C         1.325122        -0.123812         0.532844
 C        -0.090534        -0.117089         0.153443
 C        -1.269685         0.150302        -0.074458
 C        -2.783034         0.132508        -0.180365
 O        -3.152839         0.973485        -1.381201
 C        -3.397710         0.660493         1.223378
 C        -4.843853         0.174604         1.490880
 C        -5.391766         0.408530         2.801924
 O        -4.885680         0.534844         3.904497
 H         1.983968        -0.493223        -0.261300
 H         1.649104         0.900343         0.786760
 H         1.570612        -0.736727         1.436624
 H        -3.282573        -0.846993        -0.433177
 H        -2.435817         1.603758        -1.388012
 H        -2.637554         0.341013         1.934014
 H        -3.025359         1.685025         1.184264
 H        -5.621311         0.346693         0.779407
 H        -4.654504        -0.881221         1.543818
 H        -6.516357         0.272483         2.840259
