19
Iteration:   567
 C         1.413762        -0.441221         0.120940
 C        -0.036414        -0.271999        -0.053074
 C        -1.243554        -0.082516        -0.026736
 C        -2.728499         0.348455        -0.051012
 O        -3.002651         1.594875        -0.809187
 C        -3.220395         0.701088         1.278341
 C        -4.756190         0.629095         1.486686
 C        -5.007839         0.515440         3.022764
 O        -5.803442        -0.264522         3.529646
 H         1.714614         0.014176         1.068112
 H         1.672639        -1.457132         0.148942
 H         1.990519         0.008326        -0.703162
 H        -3.161672        -0.470822        -0.553613
 H        -2.937073         1.324742        -1.727579
 H        -2.692758         0.017626         1.898511
 H        -2.937399         1.653284         1.598195
 H        -5.276645         1.574811         1.145180
 H        -5.155614        -0.250726         0.898169
 H        -4.397220         1.257756         3.542851
