19
Iteration:  1004
 C         1.519281        -0.163591        -0.344675
 C         0.068956        -0.280787        -0.397316
 C        -1.066972         0.060193        -0.059600
 C        -2.503187         0.187914         0.161213
 O        -3.075705         1.325081        -0.500600
 C        -2.970586         0.296231         1.652550
 C        -4.493509         0.517019         1.682424
 C        -5.260238         0.267033         3.058623
 O        -6.458063         0.467503         3.196049
 H         1.908493        -0.535493         0.654090
 H         2.004127        -0.730779        -1.088538
 H         1.743786         0.917332        -0.426728
 H        -3.129982        -0.745383        -0.240949
 H        -2.731718         1.496939        -1.413220
 H        -2.549093        -0.607213         2.079254
 H        -2.446015         1.241892         1.981573
 H        -4.891135         1.561050         1.566687
 H        -5.240314         0.062722         0.931465
 H        -4.699334        -0.197390         3.963154
