19
Iteration:  2207
 C         1.357067         0.289951        -0.199136
 C        -0.059501         0.121929         0.225233
 C        -1.256413         0.098197         0.406988
 C        -2.736216        -0.090797         0.175554
 O        -3.378768         1.082959        -0.298730
 C        -3.351128        -0.634078         1.408631
 C        -4.928252        -0.448724         1.505642
 C        -5.320396         0.630498         2.461004
 O        -4.739192         1.590357         2.880443
 H         1.459355         0.695536        -1.195879
 H         2.091080         0.885413         0.424371
 H         1.826403        -0.720244        -0.269851
 H        -2.890309        -0.719034        -0.703172
 H        -3.062005         1.878981         0.137600
 H        -3.053452        -1.687260         1.401577
 H        -2.965220         0.064759         2.131017
 H        -5.247300        -0.320177         0.452024
 H        -5.336555        -1.420493         1.999759
 H        -6.397105         0.753488         2.685727
