19
Iteration:  2340
 C         0.891744         0.388150         0.719254
 C        -0.450147         0.101417         0.196389
 C        -1.581357         0.022468        -0.227765
 C        -3.001980        -0.067340        -0.264850
 O        -3.641658         1.193367        -0.125619
 C        -3.089406        -0.798571         1.145961
 C        -4.480912        -0.528332         1.895359
 C        -4.946694         0.813426         2.140570
 O        -4.205956         1.555415         2.765481
 H         1.498159         1.169588         0.229001
 H         0.937786         0.525594         1.790833
 H         1.258986        -0.598583         0.310672
 H        -3.595572        -0.689087        -0.899048
 H        -3.061276         1.755390         0.412807
 H        -2.783145        -1.827549         0.903314
 H        -2.273592        -0.435860         1.762564
 H        -5.199449        -1.203935         1.446850
 H        -4.288686        -1.141447         2.848199
 H        -6.023215         1.085042         1.851121
