19
Iteration:  4839charge 0 multiplicity 1
 C         1.225464         0.336253         0.464605
 C        -0.255540         0.244763         0.406653
 C        -1.448237         0.004470         0.307145
 C        -2.841616        -0.111026         0.172492
 O        -3.400583        -0.199159        -1.127753
 C        -3.519272         1.214012         0.830114
 C        -4.968759         1.031604         1.375710
 C        -5.018192         0.114024         2.650214
 O        -4.256323         0.325189         3.561617
 H         1.418510        -0.504737        -0.211169
 H         1.738000         1.180538         0.012408
 H         1.574606         0.178165         1.439564
 H        -3.251710        -0.993080         0.646269
 H        -2.885650         0.373148        -1.696983
 H        -2.921082         1.622859         1.693143
 H        -3.537825         1.953486        -0.007443
 H        -5.439061         2.028153         1.645928
 H        -5.553685         0.604189         0.575998
 H        -5.704523        -0.762634         2.654832
