19
Iteration:  1698charge 0 multiplicity 1
 C         1.370492         0.223135         0.525040
 C        -0.051306        -0.069202         0.012075
 C        -1.286466        -0.037110        -0.158630
 C        -2.787561         0.009041        -0.101622
 O        -3.241168         1.079861        -0.909594
 C        -3.285832         0.095970         1.291162
 C        -4.765206         0.404032         1.344136
 C        -5.364317         0.825754         2.725263
 O        -4.970922         0.282654         3.707580
 H         2.146739        -0.557689         0.157062
 H         1.661246         1.163379         0.112121
 H         1.370196         0.142672         1.662230
 H        -3.211340        -1.051425        -0.394949
 H        -3.123029         0.740280        -1.809482
 H        -2.954446        -0.816357         1.899850
 H        -2.576185         0.868878         1.736914
 H        -5.228355         1.218199         0.733083
 H        -5.363419        -0.563282         1.107981
 H        -6.287623         1.381981         2.554194
