19
Iteration:    47charge 0 multiplicity 1
 C         1.555953        -0.088818        -0.088254
 C         0.081225         0.035422         0.073227
 C        -1.134903         0.071737         0.015605
 C        -2.637047         0.064916        -0.059857
 O        -2.951080         1.394601        -0.666309
 C        -3.358016        -0.085640         1.254394
 C        -4.895392         0.291455         1.432731
 C        -5.043726         0.726858         2.909215
 O        -5.944200         0.343452         3.658143
 H         2.167510         0.269679         0.809763
 H         1.838683        -1.053721        -0.343605
 H         1.822134         0.562626        -0.972727
 H        -3.007489        -0.739999        -0.744572
 H        -3.136533         1.136076        -1.578619
 H        -3.296477        -1.151301         1.614871
 H        -2.865636         0.520575         1.917510
 H        -5.157100         1.178096         0.804952
 H        -5.642718        -0.539333         1.185738
 H        -4.241585         1.574600         3.184627
