19
Iteration:  4751
 C         1.187223         0.261411         0.260184
 C        -0.219182         0.173167         0.530882
 C        -1.429858        -0.072566         0.458678
 C        -2.857086        -0.082809         0.233036
 O        -3.188017         0.115132        -1.272442
 C        -3.583138         1.211836         0.820378
 C        -5.066643         0.796758         1.316077
 C        -5.080687         0.231619         2.754435
 O        -4.261629         0.330179         3.660781
 H         1.574051        -0.723290         0.002013
 H         1.443946         0.821753        -0.676474
 H         1.935287         0.660425         0.893226
 H        -3.240926        -1.051299         0.439469
 H        -2.887744        -0.577747        -1.842385
 H        -3.032807         1.986462         1.471657
 H        -3.623884         1.722712        -0.137398
 H        -5.685172         1.696366         1.545968
 H        -5.514265        -0.012159         0.817051
 H        -6.160931        -0.161399         2.975197
