19
Iteration:  3978
 C         1.302444         0.444433         0.343070
 C        -0.143320         0.231741         0.151944
 C        -1.329858         0.195348         0.144297
 C        -2.763844        -0.004499         0.453644
 O        -3.585501        -0.577275        -0.622241
 C        -3.347016         1.388123         0.780677
 C        -4.804889         1.241526         1.276814
 C        -5.205751         0.414526         2.595463
 O        -4.505140        -0.197905         3.367761
 H         1.580422         1.494840         0.360454
 H         1.547348        -0.033506         1.331326
 H         1.925907        -0.114343        -0.344308
 H        -2.832187        -0.545237         1.375750
 H        -3.186679        -0.946432        -1.419375
 H        -2.715626         1.737379         1.641496
 H        -3.382029         2.109699        -0.081243
 H        -5.276093         2.228134         1.468162
 H        -5.393758         0.954734         0.442001
 H        -6.307090         0.265259         2.524848
