19
Iteration:  4769charge 0 multiplicity 1
 C         1.192945         0.320453         0.241426
 C        -0.228031         0.079121         0.431370
 C        -1.454406        -0.135615         0.492352
 C        -2.904275        -0.046081         0.183648
 O        -3.099621         0.098191        -1.187280
 C        -3.720080         1.205562         0.697906
 C        -4.955548         0.903211         1.389816
 C        -5.064143         0.205816         2.750975
 O        -4.309209         0.314346         3.704333
 H         1.688316        -0.612541        -0.130301
 H         1.411103         1.042467        -0.543364
 H         1.607934         0.743683         1.246136
 H        -3.329993        -0.917404         0.818709
 H        -2.529150        -0.530741        -1.612313
 H        -2.769859         1.629606         1.167551
 H        -3.973730         1.800923        -0.209407
 H        -5.458427         1.902806         1.415100
 H        -5.606526         0.208741         0.707938
 H        -5.877063        -0.541021         2.803629
