19
Iteration:  3825charge 0 multiplicity 1
 C         1.186429         0.162343         0.372594
 C        -0.230103         0.160560         0.378144
 C        -1.444188         0.176254         0.429682
 C        -2.928989        -0.011833         0.293063
 O        -3.152797        -0.250773        -1.132254
 C        -3.668240         1.169779         0.843839
 C        -5.125407         0.980932         1.390624
 C        -5.097827         0.329306         2.726908
 O        -4.074305         0.375246         3.329621
 H         1.653425         0.906347        -0.283181
 H         1.625031         0.385294         1.364985
 H         1.580287        -0.778436        -0.017016
 H        -3.176410        -0.885912         0.939112
 H        -2.878433        -1.179211        -1.190921
 H        -2.983693         1.673711         1.615655
 H        -3.819549         2.069303         0.154621
 H        -5.869508         1.837329         1.444070
 H        -5.716305         0.220858         0.635722
 H        -6.054085        -0.132218         3.127566
