19
Iteration:  1327
 C         1.292638         0.009889         0.306195
 C        -0.113972        -0.164034         0.032190
 C        -1.244896         0.093575        -0.316645
 C        -2.757225         0.137282        -0.266564
 O        -3.278653         1.542199        -0.385178
 C        -3.112285        -0.361574         1.259031
 C        -4.634373         0.084468         1.436366
 C        -4.879015         0.230063         2.887203
 O        -5.670690         1.038925         3.392196
 H         1.609009        -0.942409         0.783069
 H         1.877920         0.153576        -0.581027
 H         1.433523         0.829347         1.039257
 H        -3.270493        -0.507562        -0.953402
 H        -2.552912         1.951856        -0.909095
 H        -2.919099        -1.533538         1.443463
 H        -2.368504         0.179834         1.971524
 H        -4.592034         1.073204         0.934909
 H        -5.442983        -0.534699         0.902214
 H        -4.230254        -0.542306         3.380700
