19
Iteration:  4536charge 0 multiplicity 1
 C         1.151819         0.510490        -0.194553
 C        -0.098109        -0.047194         0.435068
 C        -1.294798        -0.111401         0.451682
 C        -2.782167        -0.019487         0.462960
 O        -3.318452        -0.116476        -0.902671
 C        -3.299867         1.246759         1.225994
 C        -4.786640         1.073218         1.293615
 C        -5.312078         0.402085         2.495948
 O        -4.681182        -0.072300         3.456250
 H         2.042363         0.459846         0.448168
 H         1.476223         0.182938        -1.241551
 H         0.852975         1.520694        -0.396859
 H        -3.048067        -0.885364         1.055563
 H        -2.704557         0.184671        -1.638153
 H        -2.889610         1.244853         2.265658
 H        -2.791500         2.135441         0.796442
 H        -5.253446         2.043916         1.210857
 H        -5.204865         0.568264         0.298132
 H        -6.419520         0.595908         2.485598
