19
Iteration:  1484
 C         1.549291        -0.269550        -0.250978
 C         0.154851         0.114845        -0.109771
 C        -1.062111         0.137773         0.103371
 C        -2.565917         0.205524         0.161376
 O        -3.074486         1.248310        -0.701094
 C        -3.219270         0.398614         1.562917
 C        -4.777802         0.243239         1.448601
 C        -5.551906        -0.046685         2.697058
 O        -5.751242         0.799869         3.596480
 H         1.656012        -1.341900        -0.251612
 H         2.140993         0.040711        -1.089836
 H         2.059214         0.195356         0.576995
 H        -3.036688        -0.728103        -0.067273
 H        -3.312224         0.925824        -1.563852
 H        -2.848989        -0.353705         2.266525
 H        -2.872738         1.297365         2.106410
 H        -5.158927         1.218191         1.132655
 H        -4.931730        -0.413447         0.611769
 H        -5.830109        -1.239174         2.787279
