19
Iteration:  4983charge 0 multiplicity 1
 C         1.294671         0.408142         0.126799
 C        -0.193940         0.240807         0.641477
 C        -1.390821         0.103081         0.383659
 C        -2.850021         0.038036         0.413413
 O        -3.303632        -0.531312        -0.919281
 C        -3.508769         1.315932         0.710157
 C        -4.931727         1.227942         1.383159
 C        -5.092800         0.561105         2.639253
 O        -4.454287        -0.250698         3.244620
 H         1.262977         0.659150        -0.957191
 H         1.744259         1.342068         0.597483
 H         1.942283        -0.347538         0.374257
 H        -2.906037        -0.700961         1.250196
 H        -3.486928        -1.456187        -0.682392
 H        -2.880745         1.816768         1.462900
 H        -3.597058         1.939828        -0.250971
 H        -5.276258         2.299060         1.562488
 H        -5.732952         0.799887         0.812230
 H        -5.848674         1.099336         3.222037
