19
Iteration:  4918
 C         1.222786         0.274308         0.629055
 C        -0.124507         0.212770         0.010734
 C        -1.361100         0.225143        -0.040986
 C        -2.706650         0.099081         0.353284
 O        -3.456147        -0.441592        -0.868677
 C        -3.459676         1.234084         0.931222
 C        -5.076304         1.049010         1.264804
 C        -5.182617         0.441420         2.737316
 O        -4.284218        -0.022830         3.403733
 H         2.106966        -0.031975         0.016842
 H         1.308403         1.386823         0.855359
 H         1.154239        -0.250368         1.538271
 H        -2.940005        -0.615802         1.134224
 H        -2.964882        -0.361959        -1.695332
 H        -2.891730         1.527036         1.822282
 H        -3.314144         2.122505         0.207917
 H        -5.620354         2.040831         1.351596
 H        -5.474290         0.357782         0.521322
 H        -6.247265         0.515944         3.224876
