19
Iteration:  4053charge 0 multiplicity 1
 C         1.152945         0.709964        -0.155885
 C        -0.213160         0.188260         0.139220
 C        -1.316866        -0.010493         0.487879
 C        -2.753685        -0.288877         0.672126
 O        -3.171526        -0.423369        -0.761785
 C        -3.173880         1.036088         1.296742
 C        -4.737114         1.311495         1.334793
 C        -5.460221         0.582101         2.467069
 O        -4.727416        -0.046644         3.156385
 H         1.269688         1.798023         0.078634
 H         1.905302         0.121952         0.453567
 H         1.419000         0.523247        -1.238961
 H        -2.993935        -1.205345         1.260945
 H        -3.665678        -1.268914        -0.881560
 H        -2.835633         1.043730         2.368651
 H        -2.727764         1.892317         0.733760
 H        -5.120820         2.369693         1.281336
 H        -5.261830         0.955672         0.440357
 H        -6.571688         0.635907         2.461880
