19
Iteration:   739
 C         1.284660        -0.577226         0.194373
 C        -0.099175        -0.048271         0.150993
 C        -1.213258         0.288366        -0.159527
 C        -2.692627         0.286156        -0.158418
 O        -3.088387         1.599861        -0.637306
 C        -3.223393         0.177873         1.218411
 C        -4.751642         0.381811         1.289071
 C        -5.161938         0.734499         2.817855
 O        -5.482829        -0.057039         3.717538
 H         1.743243        -0.557064         1.169479
 H         1.245407        -1.647236        -0.167124
 H         1.900917         0.057189        -0.467101
 H        -3.128014        -0.532412        -0.873706
 H        -2.312492         2.190184        -0.816811
 H        -3.116863        -0.778760         1.623362
 H        -2.720766         1.032035         1.783017
 H        -4.938222         1.116162         0.555393
 H        -5.244750        -0.480801         0.972442
 H        -5.021758         1.748705         2.891959
