19
Iteration:  1239charge 0 multiplicity 1
 C         1.448644        -0.168686         0.145284
 C         0.010696        -0.030625        -0.122518
 C        -1.161853         0.193936        -0.001595
 C        -2.691989         0.213487        -0.134794
 O        -3.136715         1.550929        -0.537102
 C        -3.307963        -0.141092         1.284004
 C        -4.812414        -0.061526         1.429729
 C        -5.008678         0.113659         2.968712
 O        -5.690864         1.006885         3.436872
 H         1.720371        -1.000707         0.781340
 H         2.015248        -0.261661        -0.795722
 H         1.839300         0.707948         0.672729
 H        -3.131957        -0.357580        -1.008107
 H        -3.104381         1.576182        -1.514793
 H        -2.796088        -1.098997         1.514075
 H        -2.982792         0.795250         1.786887
 H        -5.196901         0.774420         0.826796
 H        -5.272469        -1.077177         0.983533
 H        -4.592043        -0.626649         3.714086
