19
Iteration:  1766charge 0 multiplicity 1
 C         1.131926         0.142126         0.795233
 C        -0.234080         0.214221         0.296061
 C        -1.328421        -0.071864        -0.206503
 C        -2.864303        -0.085988        -0.265313
 O        -3.295824         0.827322        -1.257360
 C        -3.306536         0.194502         1.176563
 C        -4.684695         0.696661         1.417945
 C        -5.252085         0.607059         2.742864
 O        -4.600452         0.278976         3.729533
 H         1.626773        -0.585830         0.105274
 H         1.578242         1.174918         0.716811
 H         1.140600        -0.201543         1.858647
 H        -3.351865        -1.073904        -0.691307
 H        -2.899203         1.670607        -1.024106
 H        -3.390569        -0.847209         1.603368
 H        -2.545517         0.464883         1.914807
 H        -4.737602         1.756490         1.033185
 H        -5.349012         0.194616         0.629007
 H        -6.265990         1.120041         2.978789
