19
Iteration:  3815charge 0 multiplicity 1
 C         1.266488         0.180453         0.367350
 C        -0.282702         0.239893         0.383415
 C        -1.478459         0.092987         0.371627
 C        -2.903892        -0.032808         0.341763
 O        -3.156337        -0.244976        -1.221632
 C        -3.663600         1.198526         0.892599
 C        -5.085688         0.935468         1.321132
 C        -5.140944         0.327232         2.757076
 O        -4.094618         0.400663         3.440033
 H         1.696592         0.885938        -0.340358
 H         1.692172         0.316423         1.407177
 H         1.535532        -0.840627         0.128184
 H        -3.343147        -0.960791         0.786781
 H        -2.985587        -1.189591        -1.377646
 H        -3.116708         1.674074         1.759784
 H        -3.737049         1.839115        -0.074568
 H        -5.449286         1.992886         1.405753
 H        -5.724369         0.362261         0.536174
 H        -6.061463        -0.153151         3.224153
