19
Iteration:  4214charge 0 multiplicity 1
 C         1.329679         0.292398        -0.544709
 C        -0.001691         0.470476         0.051134
 C        -1.196953         0.523039         0.299867
 C        -2.545927        -0.029453         0.846337
 O        -3.394984        -0.706166        -0.184230
 C        -3.160224         1.174234         1.608144
 C        -4.663777         1.464200         1.261456
 C        -5.554680         0.346428         2.121235
 O        -5.148194        -0.259958         3.127121
 H         2.277771         0.624343        -0.051165
 H         1.321624        -0.752580        -0.708133
 H         1.346856         0.757416        -1.600469
 H        -2.512040        -0.825488         1.638195
 H        -3.182190        -0.513970        -1.090884
 H        -3.149300         1.172884         2.709565
 H        -2.498538         1.958787         1.285459
 H        -4.933367         2.484248         1.308662
 H        -4.860748         1.091789         0.195817
 H        -6.608673         0.250224         1.699885
