19
Iteration:  1271charge 0 multiplicity 1
 C         1.383763        -0.169026         0.245288
 C         0.006636         0.138427        -0.025827
 C        -1.183886         0.156539        -0.162132
 C        -2.703299         0.260476        -0.220893
 O        -3.075988         1.528279        -0.522022
 C        -3.288113        -0.290487         1.166043
 C        -4.842394        -0.130698         1.427506
 C        -4.971594         0.194824         2.997484
 O        -5.678477         1.077179         3.510695
 H         1.440442        -1.125185         0.729710
 H         1.917843        -0.229998        -0.740081
 H         1.875625         0.625868         0.812697
 H        -3.193406        -0.325830        -0.988603
 H        -3.394766         1.452858        -1.413317
 H        -2.878551        -1.433050         1.309632
 H        -2.757943         0.078887         2.109038
 H        -5.118433         0.661147         0.751649
 H        -5.360919        -1.099927         1.044030
 H        -4.294555        -0.417415         3.619270
