19
Iteration:  3869
 C         1.233236         0.098239         0.359522
 C        -0.249859         0.149272         0.492340
 C        -1.482979         0.205656         0.452581
 C        -2.857758         0.155486         0.428178
 O        -3.362444        -0.339657        -0.777221
 C        -3.784409         1.492688         0.596933
 C        -5.045768         0.915632         1.244491
 C        -4.982516         0.371114         2.613063
 O        -3.957615         0.077738         3.223895
 H         1.587604         0.995347        -0.149067
 H         1.747539         0.091166         1.344730
 H         1.595136        -0.758846        -0.191915
 H        -3.232208        -0.567666         1.132382
 H        -2.708951        -0.438930        -1.481197
 H        -3.406364         2.290869         1.292656
 H        -4.061593         1.940582        -0.409049
 H        -5.975573         1.529240         1.367850
 H        -5.396116        -0.132287         0.727968
 H        -5.960821         0.287292         3.151086
