19
Iteration:   320charge 0 multiplicity 1
 C         1.582265        -0.161399        -0.323771
 C         0.146557        -0.138299        -0.178373
 C        -1.102975        -0.103081        -0.051485
 C        -2.605675         0.177111         0.057591
 O        -3.113346         1.420543        -0.496414
 C        -3.059489         0.229305         1.530201
 C        -4.583341         0.269928         1.586847
 C        -5.244860         0.659749         2.940904
 O        -6.328601         0.338642         3.411010
 H         2.084580         0.395953         0.527135
 H         1.968317        -1.125542        -0.298295
 H         1.934104         0.360864        -1.235042
 H        -3.000749        -0.699025        -0.593958
 H        -2.720805         1.662551        -1.337002
 H        -2.950626        -0.667023         1.954963
 H        -2.597453         0.993715         2.197812
 H        -4.921140         1.095068         0.790628
 H        -4.897257        -0.819589         1.294984
 H        -4.466034         1.209372         3.506581
