19
Iteration:   722
 C         1.245063        -0.586650         0.242442
 C        -0.069424        -0.126651         0.158901
 C        -1.208550         0.217671        -0.157184
 C        -2.700261         0.421963        -0.184774
 O        -3.237305         1.628825        -0.744641
 C        -3.178547         0.163110         1.347753
 C        -4.714426         0.350853         1.385627
 C        -5.065856         0.708860         2.750178
 O        -5.452513        -0.057331         3.583445
 H         1.659507        -0.485679         1.311297
 H         1.323228        -1.608650        -0.026927
 H         1.941521        -0.002121        -0.406728
 H        -3.038295        -0.293017        -0.879833
 H        -2.527762         2.319857        -0.649670
 H        -2.747975        -0.835350         1.794059
 H        -2.780522         0.858055         2.075254
 H        -5.082791         1.383294         0.988011
 H        -5.499108        -0.455560         0.994873
 H        -4.929067         1.932782         3.036608
