19
Iteration:  2113
 C         1.364225         0.360854        -0.410422
 C         0.038005        -0.197978         0.013337
 C        -1.208049        -0.246004         0.082507
 C        -2.587880        -0.018536         0.331711
 O        -3.038430         1.112906        -0.379581
 C        -3.220260        -0.183059         1.744085
 C        -4.712504        -0.189392         1.491005
 C        -5.627022         0.619061         2.336201
 O        -5.335362         1.307320         3.277976
 H         1.314891         0.592525        -1.508380
 H         1.566931         1.199933         0.178831
 H         1.979363        -0.478052        -0.039835
 H        -3.245662        -0.716388        -0.207707
 H        -2.459213         1.894669        -0.320726
 H        -3.072057        -1.174142         2.216283
 H        -2.840426         0.682013         2.305297
 H        -5.092990        -0.029839         0.477606
 H        -5.010800        -1.195662         1.623193
 H        -6.721837         0.532592         2.024527
