19
Iteration:  4706
 C         1.236080         0.137418         0.403539
 C        -0.159760         0.135284         0.242880
 C        -1.364451         0.372549         0.204758
 C        -2.807039         0.029446         0.264636
 O        -3.312653         0.005923        -1.225731
 C        -3.600338         1.011175         1.089671
 C        -5.066271         0.688175         1.299816
 C        -5.204033         0.405073         2.797506
 O        -4.219144         0.286888         3.512375
 H         1.586033        -0.891632         0.657364
 H         1.841617         0.474194        -0.455530
 H         1.564135         0.790721         1.258021
 H        -2.999794        -1.009600         0.522004
 H        -2.739519        -0.638193        -1.659016
 H        -3.300117         1.312463         2.148831
 H        -3.644872         2.035032         0.688842
 H        -5.767112         1.503713         0.945448
 H        -5.142542        -0.134416         0.614298
 H        -6.281938         0.245558         3.226731
