19
Iteration:  3431
 C         1.492660        -0.096099        -0.225811
 C         0.024460        -0.112854         0.050985
 C        -1.210680         0.119515        -0.010722
 C        -2.663954         0.177192         0.069463
 O        -3.547825         1.205361        -0.477304
 C        -3.077093         0.066056         1.592592
 C        -4.543116        -0.466098         1.742122
 C        -5.424877         0.289735         2.798260
 O        -5.384358         1.495387         2.954119
 H         1.768339        -0.866400        -0.965839
 H         1.811002         0.828505        -0.634027
 H         2.129441        -0.195160         0.663057
 H        -2.722833        -0.802442        -0.599522
 H        -3.109769         1.963991        -0.908101
 H        -2.562198        -0.734143         2.132544
 H        -2.888455         1.017640         2.095921
 H        -5.130707        -0.434959         0.790849
 H        -4.593381        -1.486747         2.289632
 H        -5.984097        -0.439506         3.470835
