19
Iteration:   710charge 0 multiplicity 1
 C         1.302727        -0.615761         0.308459
 C        -0.122132        -0.149450         0.089980
 C        -1.259980         0.195752        -0.121461
 C        -2.694865         0.469922        -0.128212
 O        -3.273556         1.633572        -0.800876
 C        -3.157379         0.213436         1.318525
 C        -4.699824         0.384774         1.372320
 C        -5.026999         0.746284         2.806466
 O        -5.464303        -0.110332         3.560734
 H         1.613526        -0.429636         1.399084
 H         1.435306        -1.637078         0.071378
 H         1.974117        -0.009203        -0.370545
 H        -3.208589        -0.311694        -0.588262
 H        -2.879542         2.488760        -0.513193
 H        -2.956961        -0.858649         1.519557
 H        -2.590034         0.886008         1.982305
 H        -4.807979         1.085328         0.502103
 H        -5.200661        -0.658148         1.094969
 H        -4.697658         1.882324         3.163748
