19
Iteration:  4787
 C         1.154458         0.336608         0.295781
 C        -0.280689        -0.023679         0.300912
 C        -1.492768        -0.013336         0.474364
 C        -2.889675        -0.022294         0.194725
 O        -3.010719        -0.072332        -1.297641
 C        -3.626369         1.293175         0.796101
 C        -5.017268         0.953317         1.455577
 C        -5.025025         0.131411         2.724591
 O        -4.318504         0.337825         3.702773
 H         1.789262        -0.458147        -0.112697
 H         1.176503         1.273884        -0.392546
 H         1.326267         0.678457         1.319075
 H        -3.540370        -0.854564         0.531280
 H        -2.234773        -0.601499        -1.444780
 H        -3.121001         1.766763         1.599312
 H        -3.765692         1.896821        -0.108627
 H        -5.559931         1.851184         1.799745
 H        -5.756073         0.652932         0.741314
 H        -5.893315        -0.607746         2.858077
