19
Iteration:  4358charge 0 multiplicity 1
 C         1.183554         0.293174        -0.379877
 C        -0.217335         0.346761         0.049132
 C        -1.318737         0.132291         0.557176
 C        -2.730793         0.079254         0.956794
 O        -3.511402        -0.500021        -0.118282
 C        -3.185071         1.495091         1.267851
 C        -4.678308         1.485834         1.478091
 C        -5.290556         0.263356         1.992963
 O        -4.694990        -0.432520         2.770086
 H         2.014982         0.530468         0.270731
 H         1.343928        -0.606611        -0.993524
 H         1.353485         1.095085        -1.130267
 H        -2.681855        -0.546567         1.869352
 H        -2.906770        -1.217829        -0.426819
 H        -2.532134         1.717142         2.117888
 H        -2.897107         2.107953         0.422713
 H        -4.899766         2.158474         2.249431
 H        -5.216824         1.948646         0.584429
 H        -6.435631         0.262319         1.722920
