19
Iteration:  3066
 C         1.110116         0.633852        -0.189540
 C        -0.206217         0.167454         0.017445
 C        -1.355852        -0.290212         0.072624
 C        -2.790217        -0.311819         0.228591
 O        -3.205895         1.079418        -0.089854
 C        -3.215230        -0.682292         1.698997
 C        -4.721264        -0.558918         1.944959
 C        -5.321289         0.844442         2.149503
 O        -4.700511         1.725782         2.707026
 H         1.855465         0.328362         0.685420
 H         1.446871         0.311641        -1.243624
 H         0.965288         1.777665        -0.316329
 H        -3.339655        -0.917716        -0.522781
 H        -3.414008         0.986621        -1.027958
 H        -2.942717        -1.758493         1.577134
 H        -2.506445        -0.331193         2.459666
 H        -5.152177        -0.986862         1.072454
 H        -5.096598        -1.133247         2.758843
 H        -6.305036         1.000577         1.788405
