19
Iteration:  1342
 C         1.308286         0.006387         0.359413
 C        -0.092089        -0.098831        -0.165556
 C        -1.281733         0.016894        -0.331087
 C        -2.702703         0.163294        -0.201881
 O        -3.178964         1.471619        -0.459136
 C        -3.205886        -0.327471         1.248340
 C        -4.607758         0.123613         1.449907
 C        -4.938522         0.215892         2.925442
 O        -5.678788         1.024108         3.422569
 H         1.737745        -0.897659         0.845616
 H         1.988675         0.266602        -0.449644
 H         1.360861         0.854907         1.058774
 H        -3.225383        -0.436831        -1.024158
 H        -2.499922         2.107689        -0.230221
 H        -3.089293        -1.367525         1.428186
 H        -2.566880         0.192628         1.996511
 H        -5.011966         1.078912         1.017347
 H        -5.294716        -0.741860         1.087142
 H        -4.459464        -0.409441         3.607810
