19
Iteration:   934
 C         1.504127        -0.345613        -0.435270
 C         0.087690        -0.092229         0.005059
 C        -1.116583         0.175756         0.066461
 C        -2.533749         0.210105         0.127326
 O        -3.079814         1.338228        -0.594234
 C        -3.089255         0.228395         1.544062
 C        -4.589172         0.495464         1.568107
 C        -5.180545         0.505294         2.974689
 O        -6.330702         0.231608         3.322371
 H         2.125285        -0.666489         0.366280
 H         1.464593        -1.140395        -1.241690
 H         1.863909         0.586037        -0.873049
 H        -2.829975        -0.733420        -0.537510
 H        -2.431877         1.787984        -1.182920
 H        -2.867518        -0.791674         1.934797
 H        -2.516319         0.976580         2.138999
 H        -4.669243         1.545647         1.145683
 H        -5.226339         0.054226         0.882744
 H        -4.383078         0.887602         3.696182
