19
Iteration:  1858charge 0 multiplicity 1
 C         1.148221         0.064646         0.663295
 C        -0.237361         0.002278         0.298778
 C        -1.429079        -0.122399         0.033101
 C        -2.926799         0.009772        -0.207726
 O        -3.139708         0.957623        -1.227571
 C        -3.403482         0.585637         1.098859
 C        -4.811770         0.378458         1.258834
 C        -5.243616         0.541608         2.788036
 O        -4.509446         0.321875         3.733003
 H         1.795279        -0.424795        -0.053521
 H         1.558110         1.097842         0.936610
 H         1.335038        -0.395706         1.636665
 H        -3.512908        -0.881207        -0.461806
 H        -2.306003         1.444080        -1.005688
 H        -2.695461         0.314563         1.875147
 H        -3.178288         1.681540         1.076960
 H        -5.518561         0.798631         0.481614
 H        -4.960158        -0.771863         1.305477
 H        -6.276255         0.881460         3.087173
