19
Iteration:  4833charge 0 multiplicity 1
 C         1.211981         0.317570         0.426127
 C        -0.279393         0.221061         0.388659
 C        -1.465581         0.026291         0.312520
 C        -2.884955        -0.103651         0.210727
 O        -3.326644        -0.207897        -1.167869
 C        -3.547604         1.212981         0.809162
 C        -4.968992         1.042665         1.399660
 C        -4.991759         0.116742         2.632979
 O        -4.257096         0.328349         3.598325
 H         1.699776        -0.560804        -0.078129
 H         1.557568         1.332707         0.054291
 H         1.639955         0.204557         1.482222
 H        -3.224497        -1.103289         0.599521
 H        -2.697133         0.266952        -1.732647
 H        -3.109798         1.507224         1.753118
 H        -3.566772         2.123934         0.194873
 H        -5.480742         1.970412         1.654526
 H        -5.622073         0.768981         0.519146
 H        -5.726692        -0.736799         2.682634
