19
Iteration:   280
 C         1.427137        -0.267843        -0.155099
 C         0.032441         0.168848        -0.191073
 C        -1.155938         0.230069        -0.083785
 C        -2.577034         0.126589        -0.006561
 O        -3.140959         1.331449        -0.536824
 C        -3.075673        -0.053008         1.537651
 C        -4.586203         0.159400         1.656438
 C        -5.074086         0.691526         2.887772
 O        -6.203543         0.464543         3.317684
 H         1.943072         0.095005         0.698886
 H         1.507280        -1.430528        -0.196902
 H         1.929715         0.028002        -1.060452
 H        -3.020828        -0.779305        -0.424173
 H        -2.399741         1.847708        -0.948753
 H        -2.614208        -1.150207         1.796156
 H        -2.273978         0.407362         2.181983
 H        -4.888849         0.838488         0.887983
 H        -5.112389        -0.794698         1.518912
 H        -4.493755         1.303314         3.482872
