19
Iteration:  1917
 C         1.309138        -0.146239         0.476775
 C        -0.069751        -0.112061         0.114854
 C        -1.239791         0.196542         0.006727
 C        -2.741121         0.184784        -0.202713
 O        -3.157869         0.940078        -1.308240
 C        -3.327994         0.621862         1.138673
 C        -4.802485         0.186941         1.485846
 C        -5.421730         0.321036         2.845312
 O        -4.942125         0.603135         3.915707
 H         1.992597        -0.546935        -0.333191
 H         1.598905         0.850976         0.711562
 H         1.287108        -0.896321         1.318558
 H        -2.895545        -0.850200        -0.499707
 H        -2.542284         1.666631        -1.404374
 H        -2.770837         0.284900         2.053720
 H        -3.474891         1.726926         1.178235
 H        -5.628441         0.429525         0.790742
 H        -4.877841        -0.950021         1.543945
 H        -6.562241         0.311255         2.706235
