19
Iteration:   697
 C         1.256351        -0.578207         0.359894
 C        -0.128743        -0.210588         0.000368
 C        -1.229194         0.226041        -0.127236
 C        -2.742543         0.410195        -0.138006
 O        -3.230909         1.613399        -0.817511
 C        -3.159626         0.323292         1.271869
 C        -4.652025         0.443075         1.386845
 C        -4.999582         0.684188         2.798626
 O        -5.493472        -0.124272         3.571613
 H         1.514287        -0.403494         1.448305
 H         1.362407        -1.669043         0.222487
 H         2.077202        -0.068274        -0.250195
 H        -3.035545        -0.326578        -0.831182
 H        -3.040437         2.290159        -0.156966
 H        -2.870664        -0.642836         1.574298
 H        -2.636947         1.013706         2.009562
 H        -5.303636         1.042058         0.808987
 H        -5.054787        -0.633907         1.291496
 H        -4.581131         1.745688         3.352413
