19
Iteration:  1833charge 0 multiplicity 1
 C         1.111468         0.114458         0.732449
 C        -0.203722        -0.051118         0.329968
 C        -1.346863        -0.153729        -0.009826
 C        -2.789076         0.042522        -0.175455
 O        -3.169388         0.924979        -1.376614
 C        -3.534954         0.475909         1.202303
 C        -4.972702         0.481999         1.323095
 C        -5.238742         0.578193         2.840509
 O        -4.375935         0.273474         3.599895
 H         1.783203        -0.292474         0.013329
 H         1.372060         1.222543         0.878523
 H         1.431789        -0.107010         1.727974
 H        -3.259811        -0.957128        -0.448105
 H        -2.450650         1.582688        -1.131291
 H        -3.044133        -0.206868         1.892997
 H        -3.137374         1.453476         1.516191
 H        -5.532604         1.354281         0.973101
 H        -5.568740        -0.424359         0.993886
 H        -6.158536         1.069409         3.248299
