19
Iteration:   746charge 0 multiplicity 1
 C         1.266299        -0.560672         0.158660
 C        -0.033964        -0.021636         0.112615
 C        -1.219025         0.243284        -0.106998
 C        -2.717459         0.302061        -0.198462
 O        -3.027396         1.571314        -0.602037
 C        -3.213743         0.213881         1.214464
 C        -4.774516         0.342973         1.213068
 C        -5.212936         0.756382         2.868610
 O        -5.490250        -0.051239         3.732333
 H         1.697729        -0.503125         1.156586
 H         1.346484        -1.614838        -0.206573
 H         1.904648         0.053302        -0.444350
 H        -3.117261        -0.387333        -0.960302
 H        -2.217946         2.028207        -0.948174
 H        -3.054781        -0.868140         1.696680
 H        -2.726096         0.821976         1.953186
 H        -5.306352         1.212959         0.553227
 H        -5.366140        -0.621152         1.039406
 H        -5.032285         1.993234         3.118533
