19
Iteration:  1322charge 0 multiplicity 1
 C         1.306966        -0.016427         0.310246
 C        -0.129313        -0.145756         0.067757
 C        -1.295921         0.102440        -0.315714
 C        -2.726749         0.113495        -0.218688
 O        -3.282065         1.540013        -0.376906
 C        -3.127924        -0.347295         1.195400
 C        -4.611419         0.086525         1.438981
 C        -4.894221         0.245328         2.894997
 O        -5.653286         1.028169         3.381392
 H         1.697734        -0.921711         0.770518
 H         1.891352         0.168823        -0.656356
 H         1.447751         0.835139         0.976575
 H        -3.287445        -0.457813        -1.026034
 H        -2.660863         1.907733        -1.042505
 H        -2.786395        -1.328866         1.306390
 H        -2.517603         0.059054         1.951529
 H        -4.635951         1.054556         0.954639
 H        -5.245721        -0.550291         0.879408
 H        -4.229832        -0.536847         3.518176
