19
Iteration:  3642
 C         1.458508         0.530919         0.067594
 C         0.019413        -0.016166         0.117196
 C        -1.249249         0.081778         0.100283
 C        -2.728798        -0.329979         0.099213
 O        -3.371759         0.172209        -1.101803
 C        -3.360689         0.314602         1.337774
 C        -4.835491         0.487914         1.378961
 C        -5.395789         0.905769         2.708858
 O        -4.920994         0.757259         3.821450
 H         1.747579         0.735574        -0.948847
 H         1.486750         1.490796         0.678484
 H         2.170492        -0.157648         0.463343
 H        -2.623929        -1.396383         0.172697
 H        -2.941681        -0.362291        -1.795841
 H        -3.048129        -0.343773         2.107791
 H        -2.967582         1.299043         1.590116
 H        -5.218299         1.212701         0.598181
 H        -5.338918        -0.533568         1.403802
 H        -6.482767         1.221399         2.677806
