19
Iteration:  1780charge 0 multiplicity 1
 C         1.139242         0.143696         0.782149
 C        -0.293083         0.155895         0.311853
 C        -1.414973        -0.044796        -0.091963
 C        -2.807923        -0.061164        -0.276945
 O        -3.227536         0.828339        -1.352999
 C        -3.384689         0.125606         1.173556
 C        -4.780243         0.732194         1.282805
 C        -5.204614         0.612811         2.832729
 O        -4.516217         0.254522         3.771173
 H         1.786643        -0.476666         0.221069
 H         1.720034         1.160315         0.849589
 H         1.229398        -0.183299         1.808479
 H        -3.109268        -1.087311        -0.618994
 H        -2.992085         1.766403        -1.076151
 H        -3.246095        -0.796792         1.702022
 H        -2.756280         0.928756         1.521472
 H        -4.765504         1.850981         1.323510
 H        -5.676646         0.438243         0.623152
 H        -6.325806         0.831430         2.944272
