19
Iteration:  4936charge 0 multiplicity 1
 C         1.247838         0.301032         0.562242
 C        -0.082663         0.356259         0.022599
 C        -1.315808         0.203953         0.131807
 C        -2.820863        -0.033336         0.288042
 O        -3.450730        -0.455268        -0.851651
 C        -3.547040         1.307199         0.810315
 C        -4.922922         1.078296         1.370817
 C        -5.133667         0.543473         2.721764
 O        -4.386683        -0.130032         3.395423
 H         1.864084        -0.003315        -0.300448
 H         1.691366         1.151176         1.034004
 H         1.205847        -0.465744         1.372721
 H        -2.887649        -0.901932         1.032174
 H        -2.735341        -0.736496        -1.427697
 H        -2.991065         1.723061         1.675426
 H        -3.690412         2.037791         0.024779
 H        -5.431551         2.048869         1.391148
 H        -5.560584         0.451503         0.727380
 H        -6.153129         0.670485         3.045495
