19
Iteration:  4164charge 0 multiplicity 1
 C         1.413746         0.479920        -0.519259
 C        -0.050287         0.409828        -0.259694
 C        -1.098718         0.097937         0.398961
 C        -2.525342        -0.146255         0.841078
 O        -3.232391        -0.575913        -0.296531
 C        -3.228861         1.138833         1.542095
 C        -4.731563         1.346396         1.327374
 C        -5.641398         0.547193         2.308042
 O        -5.269176        -0.187257         3.192540
 H         1.670053         1.227413         0.228959
 H         1.993345        -0.502944        -0.382430
 H         1.725590         0.845795        -1.489266
 H        -2.608649        -0.929671         1.613037
 H        -2.972029         0.062021        -1.008199
 H        -3.142976         1.102403         2.641229
 H        -2.502655         1.953672         1.291885
 H        -5.165958         2.379947         1.177240
 H        -4.988076         0.774418         0.404204
 H        -6.647348         0.491827         1.712431
