19
Iteration:   526
 C         1.414683        -0.505295        -0.091151
 C        -0.016549        -0.136210        -0.060371
 C        -1.224392         0.158375        -0.009411
 C        -2.618683         0.397998         0.070532
 O        -3.061181         1.387945        -0.884088
 C        -3.119288         0.564872         1.558496
 C        -4.628039         0.653564         1.585712
 C        -5.197136         0.646276         2.986988
 O        -5.880348        -0.297408         3.380217
 H         1.941497        -0.164801         0.850273
 H         1.461861        -1.560159        -0.043855
 H         2.010339        -0.179907        -0.966134
 H        -3.322212        -0.484406        -0.190878
 H        -2.654067         1.144460        -1.756010
 H        -2.838195        -0.445969         2.079541
 H        -2.611338         1.434806         1.967928
 H        -4.896801         1.596994         1.130889
 H        -5.214923         0.043214         1.004704
 H        -5.167728         1.551611         3.667447
