19
Iteration:   683
 C         1.220160        -0.587932         0.396555
 C        -0.127538        -0.192966        -0.040367
 C        -1.221949         0.239625        -0.184996
 C        -2.637607         0.404776        -0.259539
 O        -3.156791         1.592004        -0.804212
 C        -3.198598         0.366178         1.260227
 C        -4.758073         0.387745         1.442034
 C        -4.964021         0.645291         2.893055
 O        -5.540659        -0.140879         3.600499
 H         1.295269        -0.266265         1.404883
 H         1.482845        -1.707963         0.296222
 H         1.950801        -0.072616        -0.216431
 H        -3.257494        -0.475375        -0.663487
 H        -3.102990         2.343575        -0.183597
 H        -2.666522        -0.388837         1.890340
 H        -2.653945         1.300712         1.617030
 H        -4.847387         1.312383         0.911097
 H        -5.153514        -0.472976         1.026532
 H        -4.659328         1.798453         3.257905
