19
Iteration:  3144
 C         1.108574         0.727017        -0.489274
 C        -0.277919         0.272925        -0.128723
 C        -1.276283        -0.317262         0.339810
 C        -2.675751        -0.302653         0.445835
 O        -3.125119         1.089955         0.154492
 C        -3.413507        -0.874682         1.857429
 C        -4.920321        -0.643803         1.703928
 C        -5.303379         0.845176         2.087715
 O        -4.597927         1.748205         2.475493
 H         1.778118        -0.015266         0.134596
 H         1.350523         0.662544        -1.574439
 H         1.253915         1.787905        -0.064702
 H        -3.199238        -0.796436        -0.303127
 H        -2.329748         1.623332         0.228816
 H        -3.058170        -1.891755         1.809578
 H        -3.118407        -0.459967         2.811262
 H        -5.335822        -0.852032         0.745261
 H        -5.211437        -1.272484         2.505261
 H        -6.447424         1.109766         1.996730
