19
Iteration:  1291
 C         1.375218        -0.116307         0.254387
 C        -0.069810         0.103702         0.109598
 C        -1.284681         0.070286        -0.203095
 C        -2.706140         0.087498        -0.279342
 O        -3.179971         1.615263        -0.461613
 C        -3.230138        -0.347283         1.148669
 C        -4.720035         0.000031         1.519727
 C        -4.886868         0.194810         2.926960
 O        -5.654951         1.048114         3.403113
 H         1.481036        -1.048489         0.761217
 H         1.969731        -0.178237        -0.741471
 H         1.896673         0.570332         0.911417
 H        -3.088617        -0.360864        -1.142766
 H        -3.427010         1.836132        -1.374970
 H        -2.810396        -1.419458         1.096072
 H        -2.645729         0.202829         1.917445
 H        -5.028978         0.870629         1.024053
 H        -5.292270        -0.802076         1.183037
 H        -4.452772        -0.409038         3.759720
