19
Iteration:  2897charge 0 multiplicity 1
 C         1.318040         0.061382         0.074510
 C        -0.146124        -0.031789        -0.040195
 C        -1.332593         0.061902         0.006984
 C        -2.733669        -0.022026         0.014339
 O        -3.438688         0.928896        -0.838908
 C        -3.187829         0.335598         1.442184
 C        -4.480419        -0.459619         1.897408
 C        -5.295108         0.328192         2.904162
 O        -5.098699         1.531193         3.056600
 H         1.662610         0.374424         1.060118
 H         1.764323        -0.949889        -0.226099
 H         1.712240         0.677504        -0.766035
 H        -2.982501        -1.085419        -0.126462
 H        -2.955156         0.851947        -1.668029
 H        -2.492878         0.118448         2.265036
 H        -3.314867         1.437751         1.507536
 H        -5.145976        -0.739889         1.086629
 H        -4.312019        -1.365450         2.375671
 H        -6.062147        -0.178057         3.573810
