19
Iteration:  1474charge 0 multiplicity 1
 C         1.566303        -0.229394        -0.186590
 C         0.134719         0.078898        -0.124969
 C        -1.112488         0.092440         0.083364
 C        -2.603685         0.186077         0.125666
 O        -3.066717         1.299559        -0.673894
 C        -3.224356         0.336412         1.648639
 C        -4.784194         0.276843         1.397146
 C        -5.510112        -0.037385         2.721905
 O        -5.709840         0.795427         3.545034
 H         1.680574        -1.282385        -0.176675
 H         1.804859         0.183000        -1.168378
 H         2.211065         0.130742         0.574476
 H        -2.957591        -0.671832        -0.382820
 H        -3.252464         0.853467        -1.503051
 H        -2.776708        -0.329099         2.309180
 H        -3.212478         1.369344         1.861729
 H        -5.064176         1.243427         0.986269
 H        -5.114405        -0.534158         0.703566
 H        -5.508099        -1.152641         3.063022
