19
Iteration:  3729charge 0 multiplicity 1
 C         1.242665         0.420363         0.501560
 C        -0.056565        -0.043561         0.063901
 C        -1.298332         0.013550        -0.062035
 C        -2.747325        -0.195942         0.150093
 O        -3.497620        -0.127643        -1.151189
 C        -3.351659         0.954532         1.157753
 C        -4.950115         0.790587         1.376911
 C        -5.296840         0.512358         2.780312
 O        -4.475452         0.576834         3.680085
 H         1.840723         0.997415        -0.250135
 H         1.123812         1.179306         1.438141
 H         1.952407        -0.361930         0.806395
 H        -2.858403        -1.242077         0.568608
 H        -2.928105        -0.192816        -1.932630
 H        -2.912276         0.881498         2.157189
 H        -2.915502         1.895369         0.720558
 H        -5.570938         1.519010         0.770711
 H        -5.252620        -0.050017         0.826996
 H        -6.407798         0.479145         2.979473
