19
Iteration:  4131
 C         1.295781         0.615245        -0.574816
 C         0.103586         0.163117         0.171450
 C        -1.145231         0.099292         0.345939
 C        -2.580339        -0.122797         0.773914
 O        -3.329090        -0.419119        -0.416386
 C        -3.072429         1.148560         1.375372
 C        -4.592671         1.133230         1.259716
 C        -5.583672         0.553658         2.367310
 O        -5.370725        -0.177592         3.283555
 H         1.505731         1.546740        -0.016460
 H         2.318994         0.110090        -0.542168
 H         0.921359         0.987261        -1.520753
 H        -2.788145        -0.999276         1.402582
 H        -2.674891        -0.943038        -0.959132
 H        -2.877839         1.249465         2.461226
 H        -2.677341         2.005017         0.743065
 H        -4.873720         2.208871         1.480935
 H        -5.082471         0.998576         0.318231
 H        -6.688770         0.977702         2.322617
