19
Iteration:  3817
 C         1.254227         0.179509         0.366039
 C        -0.270300         0.223867         0.381689
 C        -1.486116         0.110953         0.379365
 C        -2.908196        -0.024111         0.344081
 O        -3.152237        -0.247425        -1.213475
 C        -3.650675         1.186070         0.890995
 C        -5.097819         0.949153         1.320509
 C        -5.134621         0.321561         2.759605
 O        -4.092128         0.398226         3.411412
 H         1.712664         0.882893        -0.326586
 H         1.710479         0.317919         1.418548
 H         1.547015        -0.832362         0.107032
 H        -3.354568        -0.945990         0.828860
 H        -2.964551        -1.195601        -1.322179
 H        -3.128367         1.656931         1.702039
 H        -3.836931         1.865287         0.001467
 H        -5.523245         1.960964         1.423886
 H        -5.654490         0.383639         0.638727
 H        -6.049877        -0.152186         3.221242
