19
Iteration:  1871charge 0 multiplicity 1
 C         1.158593         0.017847         0.653373
 C        -0.260846         0.027696         0.274474
 C        -1.427139        -0.173686        -0.017345
 C        -2.796669         0.018969        -0.154396
 O        -3.143778         1.006894        -1.284950
 C        -3.343015         0.702124         1.132080
 C        -4.824291         0.229813         1.384179
 C        -5.242368         0.518954         2.761500
 O        -4.606534         0.369945         3.785287
 H         1.766846        -0.417565        -0.201902
 H         1.489729         1.053400         0.727556
 H         1.324140        -0.593119         1.594410
 H        -3.277088        -0.937838        -0.402860
 H        -2.469230         1.696330        -1.407147
 H        -2.912307         0.222164         2.053276
 H        -3.277861         1.821541         0.957963
 H        -5.499656         0.824195         0.696781
 H        -4.949326        -0.844037         1.049502
 H        -6.352430         0.783817         2.692105
