19
Iteration:  3247
 C         1.307637         0.098515        -0.203634
 C        -0.081030         0.356868        -0.212140
 C        -1.269710         0.171342         0.076427
 C        -2.715641        -0.119294         0.275927
 O        -3.489064         1.075996        -0.134546
 C        -3.151046        -0.459547         1.732955
 C        -4.650137        -0.625370         1.779033
 C        -5.332791         0.603671         2.284771
 O        -4.986475         1.642238         2.830268
 H         1.382324        -1.014359         0.022732
 H         1.913923         0.180952        -1.164159
 H         1.878597         0.644063         0.573500
 H        -3.139489        -0.774702        -0.401041
 H        -3.040876         1.919388        -0.342738
 H        -2.647413        -1.434287         1.993898
 H        -2.675054         0.324307         2.326395
 H        -5.101825        -1.004853         0.908245
 H        -4.897707        -1.367266         2.465400
 H        -6.363336         0.519184         1.857144
