19
Iteration:   463charge 0 multiplicity 1
 C         1.445742        -0.425574        -0.392232
 C         0.019466        -0.143034        -0.106282
 C        -1.122261         0.131066         0.130315
 C        -2.570759         0.273229         0.296178
 O        -3.092971         1.198481        -0.728835
 C        -3.073993         0.548921         1.660831
 C        -4.634785         0.774751         1.417997
 C        -5.282425         0.698565         2.907076
 O        -5.997705        -0.222890         3.266822
 H         2.102148        -0.036150         0.461750
 H         1.510224        -1.576925        -0.359380
 H         1.855489        -0.025791        -1.346004
 H        -2.970174        -0.680822        -0.003488
 H        -3.089672         2.122336        -0.396342
 H        -2.889316        -0.396895         2.247095
 H        -2.751315         1.441738         2.330380
 H        -4.893512         1.724214         0.915091
 H        -4.831700        -0.280637         1.039756
 H        -4.996610         1.535803         3.702890
