19
Iteration:  4850charge 0 multiplicity 1
 C         1.212902         0.297860         0.482220
 C        -0.200579         0.348211         0.452677
 C        -1.338297        -0.033385         0.264063
 C        -2.899505        -0.042873         0.213078
 O        -3.541906        -0.207271        -1.091632
 C        -3.449171         1.190616         0.870282
 C        -4.942332         0.939197         1.334233
 C        -5.031221         0.166751         2.590138
 O        -4.249013         0.307704         3.527129
 H         1.608860        -0.536306        -0.126747
 H         1.659378         1.235547         0.134155
 H         1.607863         0.032643         1.403609
 H        -3.154721        -0.897272         0.816534
 H        -3.327049         0.564760        -1.622111
 H        -2.648482         1.725351         1.414066
 H        -3.567690         1.817672        -0.046183
 H        -5.366146         1.979009         1.527440
 H        -5.562563         0.449813         0.618933
 H        -5.805090        -0.669440         2.609824
