19
Iteration:  1703charge 0 multiplicity 1
 C         1.290018         0.200538         0.571186
 C        -0.060457        -0.071438         0.005227
 C        -1.237760        -0.023343        -0.165920
 C        -2.768783        -0.025815        -0.086762
 O        -3.299501         1.061987        -0.914289
 C        -3.263363         0.105439         1.299745
 C        -4.720955         0.413545         1.298720
 C        -5.351753         0.848392         2.744718
 O        -4.950608         0.267602         3.715469
 H         2.097957        -0.409110         0.244945
 H         1.610426         1.211493         0.098193
 H         1.344267         0.144701         1.631655
 H        -3.156190        -0.926543        -0.477608
 H        -3.119923         0.889011        -1.855049
 H        -2.989339        -0.844001         1.709895
 H        -2.625160         0.876224         1.665112
 H        -5.021423         1.228516         0.627452
 H        -5.410334        -0.431971         1.132521
 H        -6.373933         1.362228         2.579811
