19
Iteration:  1075
 C         1.387421        -0.171575        -0.427737
 C        -0.030789         0.095936         0.006577
 C        -1.172014        -0.018229         0.171813
 C        -2.625125         0.113721         0.063397
 O        -2.852372         1.335762        -0.634232
 C        -3.112782         0.234473         1.548488
 C        -4.588123         0.530499         1.629048
 C        -5.157812         0.115812         2.957280
 O        -6.199250         0.590990         3.312808
 H         1.929265        -0.816054         0.230776
 H         1.324241        -0.723305        -1.431928
 H         1.938266         0.767687        -0.539623
 H        -3.104861        -0.852533        -0.402774
 H        -2.263699         1.209326        -1.423921
 H        -2.871818        -0.809680         1.885235
 H        -2.515197         1.005486         1.999760
 H        -5.014448         1.509676         1.235284
 H        -5.151158        -0.285560         0.976743
 H        -4.889181        -0.869172         3.413721
