19
Iteration:  2295charge 0 multiplicity 1
 C         1.013511         0.225736         0.591263
 C        -0.292741         0.230866        -0.080943
 C        -1.501028         0.127246        -0.190278
 C        -2.997627        -0.041101        -0.007400
 O        -3.597272         1.290580        -0.037446
 C        -3.147458        -0.797353         1.316760
 C        -4.598484        -0.749390         1.867426
 C        -5.066848         0.760308         2.174668
 O        -4.278128         1.632208         2.591237
 H         1.689957         0.978356         0.195365
 H         0.810689         0.645868         1.580339
 H         1.606596        -0.696717         0.548207
 H        -3.330526        -0.676000        -0.807220
 H        -3.090409         1.784892         0.633835
 H        -3.048328        -1.865322         1.141666
 H        -2.377954        -0.419914         1.978532
 H        -5.219992        -1.356884         1.183348
 H        -4.782617        -1.290303         2.856076
 H        -6.157555         0.857308         1.919060
