19
Iteration:  3440
 C         1.439050        -0.058638        -0.333338
 C         0.036743        -0.048905         0.147595
 C        -1.156025         0.078600         0.031116
 C        -2.661855         0.161545         0.040281
 O        -3.455057         1.115404        -0.448856
 C        -3.103670         0.051284         1.576961
 C        -4.594614        -0.397051         1.700332
 C        -5.360756         0.315190         2.760745
 O        -5.425826         1.495486         3.020115
 H         1.646868        -0.871545        -1.077327
 H         1.789366         0.910822        -0.656950
 H         1.947661        -0.326456         0.649947
 H        -3.170863        -0.757833        -0.388418
 H        -3.076317         1.909999        -0.848922
 H        -2.377628        -0.707932         2.029970
 H        -3.020211         0.984272         2.180027
 H        -5.088227        -0.565692         0.676604
 H        -4.701269        -1.453008         2.032245
 H        -6.063875        -0.329995         3.349574
