19
Iteration:  4642charge 0 multiplicity 1
 C         1.263958         0.209759         0.420649
 C        -0.134849         0.205470         0.210748
 C        -1.288794         0.291519        -0.068464
 C        -2.724280         0.136674         0.087691
 O        -3.488853        -0.230762        -1.062488
 C        -3.395224         1.289542         0.911147
 C        -4.719341         0.803474         1.423123
 C        -5.253198         0.331682         2.785701
 O        -4.651678         0.116191         3.802153
 H         1.278324        -0.701387         1.043784
 H         1.822162         0.008996        -0.541371
 H         1.684675         0.970321         1.057663
 H        -2.758259        -0.799485         0.758843
 H        -2.930880        -0.170127        -1.891638
 H        -2.559520         1.183155         1.607758
 H        -3.240998         2.174495         0.311969
 H        -5.522896         1.549695         1.206057
 H        -5.173239         0.013412         0.855027
 H        -6.329918         0.098334         2.689808
