19
Iteration:  4563
 C         1.245787         0.419337         0.022553
 C        -0.215382         0.160907         0.210918
 C        -1.376728        -0.062752         0.366722
 C        -2.821972        -0.169688         0.441845
 O        -3.322676        -0.056565        -0.886868
 C        -3.300555         1.066168         1.218550
 C        -4.804368         1.064341         1.296978
 C        -5.292230         0.331198         2.507403
 O        -4.574200         0.114367         3.459706
 H         1.850459         0.066993         0.874801
 H         1.628585         0.141007        -0.923140
 H         1.314018         1.548572        -0.097672
 H        -3.114161        -1.163775         0.892752
 H        -3.112863         0.833105        -1.285430
 H        -2.721130         1.227336         2.148344
 H        -2.845309         1.872010         0.618300
 H        -5.249493         2.082752         1.150691
 H        -5.227795         0.531608         0.477329
 H        -6.382168        -0.083509         2.382229
