19
Iteration:  1146
 C         1.608823        -0.166308        -0.240852
 C         0.126829        -0.071495        -0.266774
 C        -1.069036         0.029542         0.012059
 C        -2.568382         0.212140         0.110025
 O        -2.994128         1.341245        -0.739528
 C        -3.178164         0.194504         1.509831
 C        -4.817215         0.292439         1.495869
 C        -5.404790         0.006697         2.916207
 O        -6.031976         0.798610         3.583968
 H         1.968360        -0.904802         0.554147
 H         2.049426        -0.456182        -1.191984
 H         2.029188         0.825545         0.037548
 H        -3.004354        -0.595833        -0.448140
 H        -2.717123         2.122394        -0.214965
 H        -3.004843        -0.699981         2.181173
 H        -2.824521         1.158398         2.012988
 H        -5.074771         1.402273         1.153991
 H        -5.236063        -0.344538         0.714120
 H        -5.176646        -0.950495         3.426995
