19
Iteration:  2070
 C         1.474259         0.063668        -0.318757
 C         0.035123         0.061589        -0.127174
 C        -1.139491        -0.144972         0.198611
 C        -2.591844        -0.069183         0.162725
 O        -2.994050         1.102333        -0.558687
 C        -3.231410         0.050036         1.544692
 C        -4.769570        -0.179073         1.538890
 C        -5.659836         0.591628         2.482999
 O        -5.521523         1.205185         3.521350
 H         1.642388         0.121611        -1.436646
 H         1.919972         0.934557         0.147266
 H         2.061366        -0.776991         0.139300
 H        -2.749198        -0.935389        -0.483274
 H        -2.393761         1.833777        -0.272238
 H        -2.621846        -0.644010         2.182892
 H        -3.010815         1.047324         1.973662
 H        -5.265674        -0.319308         0.537828
 H        -5.073669        -1.131594         2.062183
 H        -6.682693         0.240946         2.146299
