19
Iteration:  2277charge 0 multiplicity 1
 C         1.071534         0.265340         0.439486
 C        -0.252013         0.233372        -0.069209
 C        -1.462289         0.077903        -0.040529
 C        -2.889848         0.016878         0.041464
 O        -3.590436         1.205344        -0.056499
 C        -3.193542        -0.707719         1.371377
 C        -4.644742        -0.605916         1.771957
 C        -5.151688         0.712068         2.179674
 O        -4.315220         1.501224         2.594558
 H         1.924860         0.788290        -0.075672
 H         1.139536         0.462305         1.496198
 H         1.404594        -0.809425         0.349763
 H        -3.272530        -0.585993        -0.848526
 H        -3.236939         1.878647         0.556353
 H        -2.898839        -1.748467         1.205300
 H        -2.734108        -0.232427         2.249807
 H        -5.512036        -0.968063         1.226219
 H        -4.748665        -1.036727         2.835644
 H        -6.297095         0.837692         2.213052
