19
Iteration:  1741
 C         1.184142         0.175414         0.770984
 C        -0.143413         0.076074         0.143100
 C        -1.321528        -0.013702        -0.260311
 C        -2.795004        -0.108683        -0.223234
 O        -3.439030         0.927933        -1.044002
 C        -3.227314         0.101777         1.206654
 C        -4.645753         0.615925         1.320563
 C        -5.240497         0.736661         2.718073
 O        -4.778725         0.264877         3.740105
 H         1.861522        -0.570504         0.249868
 H         1.446442         1.174341         0.612330
 H         1.080230         0.007105         1.884046
 H        -3.227715        -1.148676        -0.452393
 H        -2.640552         1.387040        -1.311305
 H        -2.908974        -0.787092         1.852426
 H        -2.678560         0.806851         1.878819
 H        -4.473545         1.509642         0.716281
 H        -5.375599         0.111559         0.681441
 H        -6.331095         1.159083         2.807093
