19
Iteration:  4697charge 0 multiplicity 1
 C         1.283416         0.093901         0.459504
 C        -0.135889         0.186709         0.150120
 C        -1.351667         0.361500         0.158261
 C        -2.771702         0.052720         0.223894
 O        -3.366794         0.010784        -1.139102
 C        -3.629776         1.061968         1.043298
 C        -5.020825         0.648068         1.303622
 C        -5.243766         0.395307         2.817634
 O        -4.276129         0.261410         3.536105
 H         1.687789        -0.877697         0.773694
 H         2.002614         0.409755        -0.389098
 H         1.412387         0.832275         1.237268
 H        -2.803874        -1.029643         0.626748
 H        -2.688535        -0.441119        -1.661391
 H        -2.973876         1.242555         1.914950
 H        -3.524009         1.877491         0.325733
 H        -5.662877         1.532556         1.086999
 H        -5.421473        -0.217064         0.814309
 H        -6.287528         0.435128         3.211403
