19
Iteration:   401
 C         1.455341        -0.206596        -0.543680
 C         0.082378        -0.091754        -0.008018
 C        -1.108573        -0.176531         0.100893
 C        -2.535344         0.172427         0.218964
 O        -2.813333         1.352007        -0.763067
 C        -3.159697         0.524000         1.601715
 C        -4.718785         0.597421         1.601103
 C        -5.318669         0.615296         3.027351
 O        -6.257801        -0.050116         3.357532
 H         2.176805         0.227545         0.057494
 H         1.732324        -1.309709        -0.648707
 H         1.532070         0.155405        -1.539356
 H        -3.100699        -0.818436        -0.083193
 H        -1.957314         1.227065        -1.246955
 H        -2.721188        -0.218455         2.397957
 H        -2.609167         1.459716         1.951934
 H        -5.013120         1.576667         1.103721
 H        -5.305570        -0.242192         1.080346
 H        -4.993827         1.638175         3.615780
