19
Iteration:  3487charge 0 multiplicity 1
 C         1.428670         0.065806        -0.423276
 C        -0.031430         0.229618        -0.200129
 C        -1.167908        -0.030731         0.235133
 C        -2.602126         0.005971         0.365581
 O        -3.078567         0.912414        -0.667990
 C        -3.267621        -0.000763         1.675951
 C        -4.758404        -0.242102         1.611697
 C        -5.572099         0.353915         2.748052
 O        -5.324034         1.453402         3.194443
 H         1.547701        -0.529679        -1.333055
 H         1.875070         1.028912        -0.610764
 H         1.888340        -0.429529         0.423262
 H        -2.873052        -1.021637        -0.155708
 H        -2.635952         1.770135        -0.511525
 H        -2.907212        -0.927915         2.137115
 H        -3.000866         0.767991         2.396779
 H        -5.188877         0.230831         0.665535
 H        -5.182275        -1.307911         1.388171
 H        -6.439645        -0.231215         3.193853
