19
Iteration:  3795charge 0 multiplicity 1
 C         1.188842         0.221873         0.385420
 C        -0.225960         0.309294         0.391882
 C        -1.386735        -0.037460         0.352111
 C        -2.855736        -0.130593         0.152423
 O        -3.267723        -0.153742        -1.180067
 C        -3.553471         1.123185         0.734239
 C        -5.011053         0.929403         1.309428
 C        -5.069831         0.383777         2.735763
 O        -4.258075         0.416469         3.676052
 H         1.657474         0.840580        -0.377544
 H         1.707381         0.505820         1.379583
 H         1.500006        -0.804297         0.222395
 H        -3.303599        -0.990444         0.753335
 H        -3.047739        -1.042521        -1.522417
 H        -2.984586         1.387204         1.607475
 H        -3.773870         1.983888         0.083805
 H        -5.657526         1.783718         1.516126
 H        -5.580857         0.197473         0.830456
 H        -6.114110         0.061371         3.009033
