19
Iteration:    39charge 0 multiplicity 1
 C         1.463202        -0.088444        -0.086162
 C         0.095212        -0.010828         0.015815
 C        -1.113895         0.083280         0.049673
 C        -2.570075         0.148139        -0.057451
 O        -2.969112         1.365255        -0.705264
 C        -3.369855        -0.073966         1.285912
 C        -4.911208         0.277565         1.450076
 C        -5.065689         0.739129         2.927581
 O        -5.935467         0.311009         3.633416
 H         1.981997         0.258548         0.854708
 H         1.768169        -1.161508        -0.307834
 H         1.758699         0.611768        -0.912836
 H        -2.798660        -0.789669        -0.777092
 H        -2.858202         1.208423        -1.665350
 H        -2.953202        -0.966802         1.897496
 H        -2.889888         0.578387         2.106390
 H        -4.989899         1.256278         0.842735
 H        -5.734461        -0.436057         1.139958
 H        -4.174748         1.476338         3.134069
