19
Iteration:  1759charge 0 multiplicity 1
 C         1.093292         0.149411         0.759586
 C        -0.228426         0.183830         0.267153
 C        -1.298408        -0.081532        -0.220520
 C        -2.801173        -0.102588        -0.274648
 O        -3.347585         0.856665        -1.200075
 C        -3.261221         0.121850         1.263765
 C        -4.670108         0.722438         1.387971
 C        -5.257232         0.652305         2.746029
 O        -4.655444         0.276086         3.708941
 H         1.647942        -0.550472         0.196686
 H         1.677716         1.128885         0.826298
 H         1.115188        -0.087729         1.804902
 H        -3.121941        -0.911837        -0.850143
 H        -2.902979         1.707300        -1.261733
 H        -3.345440        -0.830682         1.721435
 H        -2.380998         0.608754         1.727169
 H        -4.870385         1.717581         0.965570
 H        -5.409989         0.075697         0.836090
 H        -6.278093         1.003437         2.903611
