19
Iteration:   160
 C         1.363403         0.075153         0.145731
 C        -0.060254        -0.026114        -0.112718
 C        -1.265426        -0.059469        -0.327552
 C        -2.728780         0.079767        -0.177064
 O        -2.968360         1.460024        -0.428911
 C        -3.133766        -0.176291         1.243535
 C        -4.608428        -0.026232         1.529307
 C        -4.996987         0.722358         2.880030
 O        -6.030276         0.654258         3.545348
 H         1.444294         0.520082         1.150950
 H         1.812174        -1.032884         0.160077
 H         1.899874         0.681139        -0.605362
 H        -3.336035        -0.541821        -0.919972
 H        -2.147890         1.639323        -0.883588
 H        -2.821509        -1.246232         1.617897
 H        -2.450952         0.227357         1.931077
 H        -5.286523         0.375805         0.665168
 H        -4.935871        -1.068306         1.666944
 H        -4.076032         1.316095         3.356548
