19
Iteration:  1394
 C         1.387556         0.031926         0.112192
 C        -0.053387         0.000236         0.005764
 C        -1.247124        -0.087815        -0.236417
 C        -2.723998         0.124998        -0.207857
 O        -2.863582         1.483281        -0.699785
 C        -3.221778        -0.103961         1.226376
 C        -4.801003         0.015442         1.502660
 C        -5.122896         0.152544         3.012821
 O        -5.752295         1.016218         3.554699
 H         1.686687        -1.026847         0.350540
 H         1.885951         0.282273        -0.771000
 H         1.718683         0.690247         0.939829
 H        -3.332827        -0.440707        -0.863218
 H        -2.611369         2.016477         0.058847
 H        -2.815842        -1.095004         1.594608
 H        -2.698363         0.424661         2.073678
 H        -5.383089         0.905802         1.189661
 H        -5.367459        -0.882352         1.212905
 H        -4.857409        -0.687281         3.713531
