19
Iteration:  1463charge 0 multiplicity 1
 C         1.519147        -0.158215        -0.168286
 C         0.030171        -0.019992        -0.038268
 C        -1.155210         0.063192         0.051127
 C        -2.588466         0.161638         0.157466
 O        -3.058546         1.352367        -0.621486
 C        -3.273945         0.298625         1.532225
 C        -4.827048         0.239941         1.363118
 C        -5.283248        -0.031869         2.739797
 O        -5.712676         0.839518         3.519386
 H         1.766766        -1.193252        -0.200661
 H         1.918056         0.207520        -1.124753
 H         2.080473         0.334012         0.599801
 H        -2.884843        -0.766289        -0.289068
 H        -3.180676         1.160150        -1.582469
 H        -2.879201        -0.332082         2.263573
 H        -2.874949         1.221686         1.882213
 H        -5.165396         1.162814         0.888247
 H        -5.068709        -0.648673         0.725377
 H        -5.451962        -1.079940         3.013732
