19
Iteration:  4974charge 0 multiplicity 1
 C         1.266443         0.389598         0.254471
 C        -0.180846         0.317770         0.563404
 C        -1.361820         0.173682         0.312396
 C        -2.814633        -0.026371         0.310701
 O        -3.352165        -0.504137        -0.885873
 C        -3.513915         1.297396         0.689265
 C        -4.908130         1.209571         1.364598
 C        -5.073428         0.588168         2.699922
 O        -4.462938        -0.272418         3.330043
 H         1.298737         0.336705        -0.853754
 H         1.919515         1.265242         0.512672
 H         1.824017        -0.547259         0.453978
 H        -3.053545        -0.603545         1.246913
 H        -3.414267        -1.455276        -1.002916
 H        -2.746256         1.793615         1.309435
 H        -3.530514         1.924280        -0.265078
 H        -5.405761         2.229662         1.512597
 H        -5.745670         0.798525         0.754646
 H        -6.055314         0.970226         3.065556
