19
Iteration:   838
 C         1.353758        -0.240349        -0.161151
 C        -0.034035        -0.245719        -0.012341
 C        -1.262264        -0.264763        -0.031197
 C        -2.655297         0.301815         0.023247
 O        -2.862666         1.670183        -0.477998
 C        -3.141879         0.286563         1.457348
 C        -4.742476         0.339655         1.430590
 C        -5.291499         0.812166         2.743670
 O        -5.786439        -0.011934         3.519859
 H         1.842694        -0.164782         0.811480
 H         1.654692        -1.129223        -0.685291
 H         1.570365         0.669513        -0.749720
 H        -3.302800        -0.431875        -0.484315
 H        -2.378960         1.807621        -1.316551
 H        -2.940852        -0.624327         1.945722
 H        -2.705764         1.182083         1.996562
 H        -5.129268         0.857411         0.536684
 H        -4.907368        -0.693590         1.151254
 H        -5.056840         1.867771         2.913462
