19
Iteration:  4048charge 0 multiplicity 1
 C         1.199963         0.724160        -0.137223
 C        -0.166500         0.187549         0.151336
 C        -1.336300        -0.039845         0.488009
 C        -2.800987        -0.293500         0.626915
 O        -3.215700        -0.432847        -0.769060
 C        -3.248034         1.096566         1.319035
 C        -4.705165         1.285263         1.344882
 C        -5.459445         0.564401         2.437715
 O        -4.677067        -0.043116         3.164044
 H         1.315164         1.781050         0.069932
 H         1.904870         0.149123         0.429397
 H         1.531920         0.495690        -1.145009
 H        -3.021000        -1.240379         1.145809
 H        -3.665786        -1.277846        -0.743943
 H        -2.910288         1.198201         2.335969
 H        -2.802403         1.912444         0.772573
 H        -5.049551         2.316798         1.300387
 H        -5.236675         0.894105         0.398677
 H        -6.574971         0.778562         2.523058
