19
Iteration:  4334charge 0 multiplicity 1
 C         1.062039         0.311092        -0.524982
 C        -0.059734         0.317108         0.276277
 C        -1.208497         0.267589         0.665231
 C        -2.632560        -0.089105         0.935772
 O        -3.596227        -0.458269        -0.140022
 C        -3.195265         1.355083         1.210423
 C        -4.763733         1.649935         1.516375
 C        -5.303206         0.258475         1.970039
 O        -4.698689        -0.405224         2.773635
 H         1.939789         0.622982         0.072310
 H         1.246614        -0.596136        -1.009816
 H         1.181723         1.136070        -1.302510
 H        -2.573879        -0.852851         1.695272
 H        -3.382626        -1.435657        -0.251258
 H        -2.558010         1.625400         2.049823
 H        -2.836726         1.886003         0.347319
 H        -4.832922         2.476356         2.179709
 H        -5.321715         1.940061         0.571545
 H        -5.938794        -0.144304         1.109783
