19
Iteration:  1935charge 0 multiplicity 1
 C         1.357059        -0.263740         0.396862
 C        -0.003516         0.016330         0.048838
 C        -1.194424         0.250130         0.046712
 C        -2.695283         0.188898        -0.084875
 O        -3.204319         0.922357        -1.247415
 C        -3.357861         0.608998         1.220138
 C        -4.797224         0.030812         1.370582
 C        -5.480138         0.309797         2.858984
 O        -5.029938         0.720999         3.894474
 H         1.931030        -0.632816        -0.488234
 H         1.847884         0.732116         0.585017
 H         1.436853        -1.095811         1.114117
 H        -3.016585        -0.838602        -0.401096
 H        -2.733076         1.755780        -1.250460
 H        -2.595380         0.470444         2.023964
 H        -3.210793         1.716494         1.180268
 H        -5.476479         0.782313         0.852584
 H        -4.900345        -1.000891         0.925202
 H        -6.483263        -0.121584         2.994022
