19
Iteration:  3073
 C         1.127463         0.681147        -0.242282
 C        -0.227947         0.127495         0.040004
 C        -1.330735        -0.358621         0.117438
 C        -2.818881        -0.284839         0.220017
 O        -3.207496         1.079204        -0.003451
 C        -3.260374        -0.706393         1.669076
 C        -4.695514        -0.582752         1.905202
 C        -5.268506         0.840026         2.151060
 O        -4.709584         1.796513         2.675946
 H         1.857878         0.551662         0.463934
 H         1.510576         0.406520        -1.221967
 H         0.937465         1.730210        -0.170436
 H        -3.328424        -1.069691        -0.349318
 H        -3.541200         1.081106        -0.905703
 H        -3.103442        -1.795224         1.589670
 H        -2.506487        -0.335861         2.375983
 H        -5.040192        -0.985845         0.856136
 H        -5.034370        -1.358358         2.699051
 H        -6.374774         0.963572         1.755266
