19
Iteration:  1816charge 0 multiplicity 1
 C         1.272010         0.201557         0.795557
 C        -0.222561        -0.094899         0.350400
 C        -1.404442        -0.086696        -0.037690
 C        -2.891729         0.059507        -0.228634
 O        -3.152043         0.841925        -1.363595
 C        -3.479312         0.352433         1.119949
 C        -5.071878         0.618201         1.304044
 C        -5.203064         0.589571         2.871600
 O        -4.361721         0.253573         3.674493
 H         2.026060        -0.320700         0.156617
 H         1.415447         1.280234         0.745560
 H         1.338578        -0.295061         1.788738
 H        -3.235347        -0.867954        -0.673217
 H        -2.740855         1.729324        -1.538983
 H        -3.337077        -0.485922         1.820642
 H        -2.926004         1.084946         1.750450
 H        -5.332856         1.655021         0.949663
 H        -5.741414        -0.077817         0.783483
 H        -6.217886         0.822165         3.299298
