19
Iteration:   654charge 0 multiplicity 1
 C         1.250479        -0.570358         0.416816
 C        -0.092392        -0.119653        -0.028075
 C        -1.241769         0.097406        -0.307276
 C        -2.684972         0.426795        -0.303993
 O        -3.052156         1.620119        -0.950812
 C        -3.183700         0.517024         1.274719
 C        -4.761109         0.434927         1.517251
 C        -5.004431         0.558083         2.990011
 O        -5.655909        -0.185000         3.720182
 H         1.407649        -0.276061         1.496820
 H         1.330663        -1.657501         0.388858
 H         2.116818        -0.138062        -0.174091
 H        -3.335574        -0.290019        -0.675815
 H        -2.318090         2.221247        -0.803082
 H        -2.895815        -0.447266         1.627839
 H        -2.483540         1.156166         1.805022
 H        -5.263980         1.263215         0.976923
 H        -4.941149        -0.601765         1.042847
 H        -4.700078         1.423960         3.457045
