19
Iteration:  1903charge 0 multiplicity 1
 C         1.338959        -0.111824         0.567824
 C        -0.126254        -0.100854         0.174470
 C        -1.309214         0.089771        -0.119994
 C        -2.790712         0.117386        -0.172918
 O        -3.147584         0.985499        -1.400728
 C        -3.417289         0.690542         1.238498
 C        -4.814021         0.161817         1.478350
 C        -5.427781         0.465706         2.823391
 O        -4.829948         0.500314         3.899894
 H         1.972738        -0.469001        -0.283330
 H         1.697780         0.885613         0.861289
 H         1.697292        -0.600360         1.500004
 H        -3.339008        -0.806752        -0.292742
 H        -2.404330         1.644043        -1.458510
 H        -2.689970         0.179589         1.946443
 H        -3.069154         1.747750         1.198234
 H        -5.506832         0.373137         0.592726
 H        -4.633600        -0.973782         1.416240
 H        -6.532540         0.246503         2.825133
