19
Iteration:   782charge 0 multiplicity 1
 C         1.488254        -0.420358         0.046518
 C         0.004321        -0.164073        -0.086759
 C        -1.223597        -0.007535         0.023744
 C        -2.744836         0.394779        -0.085675
 O        -2.852270         1.726818        -0.614821
 C        -3.401293         0.172488         1.353730
 C        -4.943844         0.254273         1.362884
 C        -5.225156         0.753834         2.779578
 O        -5.543923         0.005132         3.674376
 H         1.756421        -0.317270         1.060058
 H         1.818253        -1.441248        -0.301457
 H         2.034522         0.341107        -0.499491
 H        -3.314659        -0.386642        -0.703976
 H        -2.474852         1.558087        -1.534889
 H        -3.064568        -0.830036         1.571574
 H        -2.952881         0.961374         2.012193
 H        -5.375455         1.100366         0.701363
 H        -5.409949        -0.664639         1.124653
 H        -5.138836         1.920605         3.077435
