19
Iteration:  4700
 C         1.257406         0.104316         0.441074
 C        -0.152632         0.171001         0.180745
 C        -1.337866         0.370343         0.170509
 C        -2.785169         0.045481         0.249156
 O        -3.350658         0.007121        -1.173289
 C        -3.633759         1.036361         1.069730
 C        -5.028397         0.669724         1.295238
 C        -5.236927         0.399478         2.822189
 O        -4.256479         0.270407         3.523305
 H         1.698802        -0.856184         0.699853
 H         2.003941         0.406105        -0.359001
 H         1.449239         0.834177         1.213757
 H        -2.870978        -1.057304         0.536935
 H        -2.702944        -0.509612        -1.661011
 H        -3.123192         1.301506         1.968302
 H        -3.563310         1.953155         0.446526
 H        -5.632133         1.537644         1.079448
 H        -5.280803        -0.269861         0.707200
 H        -6.244389         0.381308         3.192814
