19
Iteration:  3516
 C         1.522823         0.265163        -0.512771
 C         0.072527         0.011477        -0.163361
 C        -1.071201        -0.007104         0.291700
 C        -2.577258        -0.164422         0.301250
 O        -3.081359         0.781398        -0.623717
 C        -3.356610        -0.006603         1.557333
 C        -4.899930        -0.112103         1.548585
 C        -5.693441         0.493986         2.700374
 O        -5.277052         1.382518         3.406841
 H         1.805537        -0.136332        -1.540429
 H         1.667585         1.351051        -0.539240
 H         2.222038        -0.291786         0.211895
 H        -2.749289        -1.098523        -0.158466
 H        -2.933608         1.698827        -0.324975
 H        -2.936813        -0.611452         2.436015
 H        -3.176185         1.030068         1.949134
 H        -5.123965         0.512938         0.656028
 H        -5.349614        -1.058399         1.300137
 H        -6.660544        -0.017466         2.983775
