19
Iteration:  1202
 C         1.456426        -0.145758        -0.013760
 C        -0.039081        -0.055614         0.102279
 C        -1.279066         0.045624        -0.206453
 C        -2.742389         0.217794        -0.080896
 O        -3.161006         1.457741        -0.555666
 C        -3.107410         0.118954         1.495259
 C        -4.586624         0.069292         1.466997
 C        -5.156445         0.049623         2.831946
 O        -5.776070         0.913575         3.398913
 H         1.860422        -0.996198         0.556262
 H         1.676762        -0.294768        -1.121607
 H         1.962443         0.781208         0.262976
 H        -3.160475        -0.662932        -0.514598
 H        -2.422027         1.984562        -0.827968
 H        -2.667582        -0.690022         2.176106
 H        -2.646256         1.035539         2.007386
 H        -5.027837         0.904208         0.814688
 H        -4.988590        -0.853463         0.974154
 H        -5.172329        -0.970723         3.214272
