19
Iteration:  1297
 C         1.333251        -0.083900         0.253737
 C        -0.094748         0.049126         0.123750
 C        -1.254323         0.058527        -0.189423
 C        -2.716278         0.151026        -0.323695
 O        -3.197049         1.553131        -0.416074
 C        -3.190130        -0.308958         1.143137
 C        -4.703678         0.045087         1.538322
 C        -4.872022         0.206579         2.954766
 O        -5.645723         1.033568         3.351843
 H         1.426936        -1.110700         0.737094
 H         1.834851        -0.119592        -0.676067
 H         1.799411         0.688843         0.903134
 H        -3.251520        -0.385568        -1.214534
 H        -3.343501         1.769283        -1.334778
 H        -2.895898        -1.350125         1.179641
 H        -2.500306        -0.013669         1.957506
 H        -4.969810         0.970311         0.916917
 H        -5.298227        -0.867376         1.134247
 H        -4.367914        -0.589047         3.599262
