19
Iteration:  3476
 C         1.347481         0.035229        -0.422367
 C         0.012387         0.189904        -0.078305
 C        -1.200523         0.067473         0.173907
 C        -2.655463        -0.006637         0.226358
 O        -3.113234         0.965418        -0.609478
 C        -3.191568        -0.054307         1.716335
 C        -4.747213        -0.260867         1.675203
 C        -5.561995         0.327089         2.741610
 O        -5.332097         1.464522         3.119960
 H         1.522876        -0.662341        -1.249116
 H         1.931716         0.913760        -0.602273
 H         1.867779        -0.412278         0.420684
 H        -3.036303        -1.088403        -0.189127
 H        -2.494026         1.715811        -0.527854
 H        -2.541152        -0.790348         2.201836
 H        -2.943418         0.952733         2.049895
 H        -5.072451         0.486894         0.885789
 H        -4.786771        -1.419773         1.484889
 H        -6.377225        -0.365029         3.137339
