19
Iteration:  4137charge 0 multiplicity 1
 C         1.343952         0.616888        -0.561220
 C         0.060592         0.170661         0.078213
 C        -1.137673         0.094282         0.392814
 C        -2.528529        -0.079379         0.742424
 O        -3.345430        -0.467626        -0.392811
 C        -3.101121         1.146647         1.437371
 C        -4.619342         1.142770         1.289083
 C        -5.670160         0.567050         2.339493
 O        -5.336111        -0.185597         3.272605
 H         1.588479         1.506278         0.051706
 H         2.186606        -0.027250        -0.601474
 H         1.155163         0.948339        -1.621879
 H        -2.670626        -0.886221         1.515681
 H        -2.703342        -0.732204        -1.083368
 H        -2.787464         1.335821         2.467584
 H        -2.655791         1.949781         0.888890
 H        -4.934417         2.164356         1.517204
 H        -4.825868         0.942162         0.154939
 H        -6.638723         1.019755         2.208884
