19
Iteration:  4473
 C         1.294775         0.306315        -0.287198
 C        -0.194129         0.393112        -0.035363
 C        -1.254695         0.238590         0.526518
 C        -2.620907        -0.127098         0.660567
 O        -3.203264        -0.322405        -0.679911
 C        -3.283398         1.191858         1.191864
 C        -4.769194         1.362429         1.429193
 C        -5.433037         0.530014         2.564991
 O        -4.935493        -0.380447         3.189844
 H         1.648829         0.222462         0.755855
 H         1.547744        -0.541912        -0.920638
 H         1.770517         1.232985        -0.694941
 H        -2.898651        -1.036241         1.247555
 H        -3.061742        -1.269286        -0.934263
 H        -2.909801         1.274476         2.247307
 H        -2.869222         2.093616         0.653592
 H        -5.106682         2.413849         1.716615
 H        -5.318543         1.092479         0.563541
 H        -6.455604         0.710388         2.773663
