19
Iteration:  3797charge 0 multiplicity 1
 C         1.186360         0.210912         0.386688
 C        -0.232117         0.316783         0.392655
 C        -1.375192        -0.035052         0.354367
 C        -2.865350        -0.139991         0.166584
 O        -3.255149        -0.159253        -1.186729
 C        -3.573890         1.146427         0.745880
 C        -5.025155         0.917155         1.307461
 C        -5.063859         0.384657         2.741123
 O        -4.246679         0.413970         3.663612
 H         1.669283         0.842753        -0.368858
 H         1.687477         0.510053         1.351694
 H         1.517735        -0.817180         0.187551
 H        -3.255384        -1.002421         0.757381
 H        -3.057939        -1.053009        -1.511148
 H        -3.031806         1.422384         1.604292
 H        -3.686774         2.002374         0.089966
 H        -5.659403         1.778707         1.542863
 H        -5.649613         0.283642         0.763531
 H        -6.091328         0.065794         2.989088
