19
Iteration:  2977
 C         1.235761         0.055689         0.059195
 C        -0.104119         0.222130         0.079039
 C        -1.309558         0.291250        -0.208555
 C        -2.680627        -0.113802         0.025612
 O        -3.767624         0.700955        -0.620695
 C        -2.918176        -0.250814         1.604129
 C        -4.434483        -0.439508         1.856318
 C        -5.345541         0.706574         2.432042
 O        -4.967253         1.623263         3.143872
 H         1.603878         0.042267         1.157892
 H         1.787209        -0.841536        -0.471472
 H         1.828162         1.035226        -0.088385
 H        -2.732833        -1.106620        -0.448297
 H        -4.120007         1.302909         0.038968
 H        -2.503154        -1.127995         2.137844
 H        -2.575794         0.700801         2.038774
 H        -4.842531        -0.638432         0.921105
 H        -4.632526        -1.231992         2.458230
 H        -6.390209         0.805526         1.869890
