19
Iteration:  2022charge 0 multiplicity 1
 C         1.490583        -0.155504        -0.207404
 C         0.098139        -0.032668         0.068503
 C        -1.111097         0.211974         0.147824
 C        -2.616886         0.174599         0.230583
 O        -3.192228         0.981785        -0.872876
 C        -3.329830         0.271021         1.589342
 C        -4.731047        -0.115949         1.428067
 C        -5.652718         0.331270         2.616563
 O        -5.312727         1.100208         3.537767
 H         1.694046        -0.330377        -1.271237
 H         2.156488         0.569140         0.286567
 H         1.865314        -1.029301         0.366778
 H        -2.738337        -0.886273        -0.235669
 H        -2.896111         1.891916        -0.795292
 H        -2.913412        -0.340574         2.397760
 H        -3.234459         1.298532         1.990971
 H        -5.179782         0.372138         0.556193
 H        -4.792450        -1.163594         1.183085
 H        -6.660214        -0.137331         2.579707
