19
Iteration:  3279
 C         1.308942        -0.016913         0.011644
 C        -0.131591         0.194988        -0.203018
 C        -1.344634         0.179250        -0.227411
 C        -2.720081         0.012008         0.157065
 O        -3.496121         1.157302        -0.294808
 C        -3.026098        -0.209209         1.675767
 C        -4.514349        -0.583429         1.907917
 C        -5.421032         0.507431         2.323709
 O        -5.039277         1.504852         2.921003
 H         1.475401        -1.163465         0.256047
 H         2.008455         0.314931        -0.837693
 H         1.729008         0.458807         0.957208
 H        -3.238400        -0.753003        -0.416054
 H        -3.111124         1.993854         0.026968
 H        -2.488671        -1.130143         2.024201
 H        -2.680953         0.637943         2.278363
 H        -4.970261        -1.206966         1.177699
 H        -4.492497        -1.263927         2.827043
 H        -6.494437         0.304133         2.093842
