19
Iteration:  1025charge 0 multiplicity 1
 C         1.654302        -0.098391        -0.367248
 C         0.156443        -0.334342        -0.383358
 C        -1.107528        -0.075137        -0.115480
 C        -2.566775         0.150146         0.137216
 O        -3.092760         1.395475        -0.485091
 C        -3.070831         0.330250         1.671640
 C        -4.527444         0.612320         1.746115
 C        -5.281829         0.209126         2.958512
 O        -6.426001         0.500031         3.272535
 H         2.112792        -0.533907         0.592131
 H         2.226149        -0.616148        -1.085619
 H         1.836123         1.002365        -0.332421
 H        -3.113196        -0.829576        -0.252484
 H        -2.711394         1.400693        -1.354754
 H        -2.887318        -0.626217         2.162414
 H        -2.536407         1.292102         1.969868
 H        -5.066838         1.521229         1.230138
 H        -4.927835        -0.308560         1.177976
 H        -4.755716        -0.399093         3.700281
