19
Iteration:  4001
 C         1.309458         0.565593         0.164434
 C        -0.086680         0.234018         0.323366
 C        -1.322986         0.008313         0.181067
 C        -2.761582        -0.076310         0.496898
 O        -3.615645        -0.412197        -0.622749
 C        -3.263701         1.272245         0.954688
 C        -4.739928         1.173862         1.272974
 C        -5.247934         0.471276         2.483516
 O        -4.601720        -0.158171         3.322741
 H         1.336641         1.643787         0.133136
 H         2.014945         0.178242         0.967458
 H         1.718229         0.180594        -0.749391
 H        -2.839933        -0.787907         1.297378
 H        -3.423343        -1.325206        -0.936681
 H        -2.536043         1.862699         1.555509
 H        -3.508606         1.863448         0.026275
 H        -5.384784         2.063619         1.284924
 H        -5.167273         0.729400         0.392656
 H        -6.369682         0.615169         2.489115
