19
Iteration:  2872
 C         1.426476         0.119814        -0.041282
 C        -0.038149        -0.093899         0.074407
 C        -1.279057        -0.233916         0.002376
 C        -2.777444        -0.076745         0.007100
 O        -3.286900         1.036844        -0.887783
 C        -3.363259         0.424767         1.325218
 C        -4.442109        -0.365601         1.895893
 C        -5.222022         0.329108         2.993278
 O        -5.321925         1.517013         3.198024
 H         1.848871         0.643529         0.806977
 H         1.963450        -0.731454        -0.269933
 H         1.514216         0.681109        -0.939379
 H        -3.172872        -1.053577        -0.203243
 H        -3.314682         0.543557        -1.721693
 H        -2.629697         0.360053         2.158615
 H        -3.631591         1.479529         1.303845
 H        -5.340478        -0.427475         1.125451
 H        -4.316415        -1.442891         2.164236
 H        -5.845236        -0.372358         3.693509
