19
Iteration:   321
 C         1.585704        -0.151092        -0.330187
 C         0.143782        -0.151455        -0.176038
 C        -1.098655        -0.113234        -0.046987
 C        -2.610428         0.185528         0.061988
 O        -3.110992         1.425830        -0.496264
 C        -3.071552         0.240014         1.528137
 C        -4.579708         0.273807         1.574990
 C        -5.254346         0.653590         2.939208
 O        -6.323765         0.335934         3.409588
 H         2.064574         0.384534         0.501457
 H         1.998659        -1.129032        -0.305923
 H         1.932525         0.347983        -1.220795
 H        -2.990769        -0.738608        -0.561630
 H        -2.719883         1.635847        -1.364949
 H        -2.932848        -0.680057         1.998013
 H        -2.582775         0.991128         2.232022
 H        -4.954756         1.097466         0.833202
 H        -4.868019        -0.830006         1.289819
 H        -4.417167         1.240334         3.555501
