19
Iteration:  2522
 C         1.160115         0.746634        -0.100098
 C        -0.160167         0.232691         0.238022
 C        -1.269728        -0.227522         0.214666
 C        -2.764107        -0.398000         0.114140
 O        -3.246782         0.840394        -0.426889
 C        -3.592871        -0.727792         1.387871
 C        -5.031248         0.007141         1.384960
 C        -5.286115         0.858565         2.579548
 O        -4.343993         1.296276         3.196992
 H         1.068482         1.831176        -0.244638
 H         1.919902         0.640395         0.751489
 H         1.695027         0.289642        -0.916485
 H        -2.979976        -1.196415        -0.638126
 H        -2.493223         1.271483        -0.916466
 H        -3.641545        -1.800210         1.555238
 H        -2.865929        -0.526076         2.208566
 H        -4.795515         0.828388         0.580623
 H        -5.782939        -0.796552         0.908508
 H        -6.330703         1.134655         2.747942
