19
Iteration:  2127charge 0 multiplicity 1
 C         1.335785         0.328518        -0.372123
 C         0.039110        -0.122687        -0.054278
 C        -1.172152        -0.230561         0.225709
 C        -2.648543        -0.164503         0.250107
 O        -3.092137         1.130171        -0.259762
 C        -3.233980        -0.161375         1.643568
 C        -4.790121        -0.212976         1.491489
 C        -5.620030         0.613397         2.340646
 O        -5.235423         1.358129         3.213398
 H         1.413349         0.619028        -1.413245
 H         1.553609         1.312412         0.152396
 H         2.245374        -0.230446        -0.368387
 H        -2.968570        -1.025293        -0.320641
 H        -2.361232         1.680415         0.066937
 H        -2.798908        -1.095614         2.068852
 H        -2.977460         0.629457         2.381106
 H        -4.936152         0.149454         0.437935
 H        -5.147610        -1.255538         1.563446
 H        -6.712147         0.576821         2.058194
