19
Iteration:  2012
 C         1.474124        -0.206851        -0.150457
 C         0.020490        -0.030773         0.117712
 C        -1.159439         0.270555         0.224882
 C        -2.540502         0.144529         0.169581
 O        -3.256520         0.953685        -0.856441
 C        -3.230256         0.375133         1.546962
 C        -4.774371        -0.020670         1.353135
 C        -5.632696         0.265375         2.677629
 O        -5.269556         1.049077         3.495391
 H         1.726889        -0.319397        -1.242404
 H         1.975824         0.714337         0.151197
 H         1.674212        -1.193907         0.337945
 H        -2.685010        -0.947136        -0.284006
 H        -2.877355         1.844294        -0.796210
 H        -2.665232        -0.362300         2.141328
 H        -3.034805         1.433661         1.818508
 H        -5.200890         0.325329         0.393441
 H        -4.735609        -1.116759         1.328629
 H        -6.663291        -0.217415         2.836140
