19
Iteration:  4062charge 0 multiplicity 1
 C         1.072617         0.658783        -0.194732
 C        -0.207138         0.237380         0.108215
 C        -1.297272        -0.029815         0.516458
 C        -2.650463        -0.271285         0.675619
 O        -3.113321        -0.405010        -0.721266
 C        -3.158650         0.992057         1.278496
 C        -4.804307         1.360071         1.298717
 C        -5.430881         0.649269         2.428295
 O        -4.824424        -0.109285         3.225465
 H         1.125276         1.746208         0.073969
 H         1.847525         0.182755         0.354927
 H         1.234098         0.634682        -1.312147
 H        -2.934330        -1.092641         1.400341
 H        -3.622316        -1.207161        -0.951337
 H        -2.692276         0.892021         2.265060
 H        -2.602132         1.741970         0.763539
 H        -4.904344         2.464750         1.366159
 H        -5.213546         0.938153         0.309891
 H        -6.513833         0.459087         2.508025
