19
Iteration:  4237
 C         1.342572         0.298455        -0.619616
 C        -0.016300         0.422960         0.069432
 C        -1.200001         0.175021         0.311976
 C        -2.495282         0.116375         0.823000
 O        -3.388724        -0.545981        -0.053801
 C        -3.203639         1.347835         1.548144
 C        -4.712899         1.321804         1.372030
 C        -5.505671         0.289641         2.035893
 O        -5.142747        -0.265385         3.039743
 H         2.092999         0.681079         0.101872
 H         1.606937        -0.712504        -0.895892
 H         1.527632         0.928316        -1.553764
 H        -2.610099        -0.554172         1.741280
 H        -2.974012        -0.772183        -0.932607
 H        -3.013240         1.303571         2.630955
 H        -2.960273         2.360911         1.254454
 H        -5.064439         2.257377         1.757441
 H        -5.062644         1.294799         0.268897
 H        -6.555351         0.212112         1.553577
