19
Iteration:    52charge 0 multiplicity 1
 C         1.595171        -0.062893        -0.092149
 C         0.076096         0.052804         0.103552
 C        -1.167809         0.049177         0.007743
 C        -2.654392         0.045842        -0.077891
 O        -2.950046         1.392454        -0.644996
 C        -3.379454        -0.102043         1.262461
 C        -4.862815         0.297359         1.428642
 C        -5.062855         0.713026         2.879743
 O        -5.925225         0.371682         3.664062
 H         2.184876         0.240739         0.741636
 H         1.916792        -1.160806        -0.370081
 H         1.927647         0.508319        -0.950313
 H        -3.077924        -0.728055        -0.794389
 H        -3.290705         1.233473        -1.546097
 H        -3.404952        -1.209199         1.383034
 H        -2.707743         0.629018         1.924485
 H        -5.215338         1.143091         0.795979
 H        -5.489391        -0.550808         1.236859
 H        -4.392287         1.507508         3.321960
