19
Iteration:  2544
 C         1.161164         0.753168        -0.047833
 C        -0.148442         0.131440         0.149427
 C        -1.317294        -0.290354         0.219172
 C        -2.748862        -0.414559         0.053545
 O        -3.297757         0.854729        -0.435998
 C        -3.516297        -0.632556         1.383281
 C        -4.881904        -0.000423         1.303060
 C        -5.198743         0.801039         2.542137
 O        -4.498776         1.363619         3.357911
 H         0.955446         1.819036        -0.207815
 H         1.948865         0.484505         0.741677
 H         1.578192         0.281223        -0.939757
 H        -3.019289        -1.094928        -0.768580
 H        -2.595876         1.420054        -0.735530
 H        -3.421008        -1.609918         1.846856
 H        -2.902629        -0.033101         2.150708
 H        -5.100386         0.784730         0.496416
 H        -5.600986        -0.928359         1.130515
 H        -6.282950         0.972187         2.490117
