19
Iteration:  1916charge 0 multiplicity 1
 C         1.309290        -0.141137         0.483437
 C        -0.066221        -0.115446         0.120822
 C        -1.239856         0.194714        -0.000127
 C        -2.751650         0.179623        -0.201487
 O        -3.157657         0.942223        -1.316221
 C        -3.330420         0.622571         1.144982
 C        -4.809699         0.191575         1.488402
 C        -5.412899         0.324503         2.840138
 O        -4.939772         0.596446         3.912163
 H         2.002088        -0.545213        -0.328860
 H         1.587754         0.858653         0.694681
 H         1.286962        -0.902849         1.317143
 H        -2.925891        -0.840104        -0.515655
 H        -2.520255         1.656877        -1.394388
 H        -2.749140         0.296465         2.067048
 H        -3.432409         1.749349         1.186070
 H        -5.667281         0.418087         0.799027
 H        -4.853166        -0.961639         1.575761
 H        -6.550825         0.327071         2.720431
