19
Iteration:  3025
 C         1.302145         0.427337        -0.015039
 C        -0.127229         0.167870        -0.124028
 C        -1.320918        -0.068306         0.097124
 C        -2.810045        -0.198303         0.096492
 O        -3.579574         0.910294        -0.382805
 C        -3.160664        -0.364949         1.597840
 C        -4.739051        -0.594534         2.035963
 C        -5.276826         0.772262         2.228630
 O        -4.729783         1.596225         2.923850
 H         1.759590         0.133496         0.966796
 H         1.768055        -0.187792        -0.739287
 H         1.620724         1.451734        -0.156519
 H        -3.072639        -1.185189        -0.364443
 H        -2.937365         1.589647        -0.703090
 H        -2.611671        -1.210893         2.024233
 H        -2.772215         0.563146         2.012741
 H        -5.240007        -0.920842         1.140494
 H        -4.867870        -1.326169         2.847008
 H        -6.116992         1.073274         1.478368
