19
Iteration:  2337charge 0 multiplicity 1
 C         0.886126         0.376815         0.703719
 C        -0.439148         0.104002         0.208297
 C        -1.572817         0.033497        -0.264306
 C        -2.997913        -0.085126        -0.225320
 O        -3.644221         1.208919        -0.117574
 C        -3.093689        -0.784508         1.151205
 C        -4.452302        -0.571575         1.891714
 C        -4.957877         0.813021         2.155688
 O        -4.223133         1.571088         2.740104
 H         1.432626         1.153181         0.185616
 H         0.946296         0.510981         1.896260
 H         1.252389        -0.613065         0.348480
 H        -3.675395        -0.664223        -0.948292
 H        -3.036892         1.727303         0.496852
 H        -2.716151        -1.797330         0.784063
 H        -2.223164        -0.558451         1.862106
 H        -5.298467        -1.206368         1.387525
 H        -4.306214        -1.045952         2.854016
 H        -5.962643         1.174752         1.873235
