19
Iteration:   647charge 0 multiplicity 1
 C         1.249869        -0.569733         0.408109
 C        -0.092333        -0.093911        -0.020429
 C        -1.309478         0.030297        -0.271912
 C        -2.699924         0.483875        -0.240633
 O        -3.032661         1.648695        -1.020937
 C        -3.175333         0.496465         1.264972
 C        -4.710691         0.437426         1.571156
 C        -5.009442         0.544268         3.017436
 O        -5.666354        -0.192286         3.683256
 H         1.520939        -0.257947         1.428838
 H         1.370140        -1.633296         0.409266
 H         2.034467        -0.096104        -0.153300
 H        -3.180725        -0.375273        -0.884743
 H        -2.153054         2.058567        -1.083784
 H        -2.679714        -0.545868         1.459455
 H        -2.641210         1.180110         1.926776
 H        -5.375043         1.117256         0.961001
 H        -5.091809        -0.501472         1.130481
 H        -4.679957         1.555142         3.630885
