19
Iteration:  4175charge 0 multiplicity 1
 C         1.403068         0.431616        -0.508421
 C        -0.149223         0.456733        -0.248019
 C        -1.183860         0.173405         0.345487
 C        -2.524852        -0.105528         0.910554
 O        -3.174621        -0.620697        -0.288168
 C        -3.212061         1.140729         1.622195
 C        -4.703697         1.321292         1.226743
 C        -5.648441         0.490520         2.229609
 O        -5.219673        -0.176668         3.179270
 H         1.965481         0.988072         0.247670
 H         1.682274        -0.656145        -0.293831
 H         1.770564         0.818468        -1.445244
 H        -2.369760        -0.965900         1.573667
 H        -3.254009         0.187965        -0.863128
 H        -3.037550         0.887880         2.669306
 H        -2.721253         2.099610         1.308639
 H        -4.893067         2.429434         1.387986
 H        -4.825844         1.181766         0.139719
 H        -6.791719         0.560492         2.262525
