19
Iteration:  1756
 C         1.085518         0.159844         0.750562
 C        -0.218838         0.170950         0.255726
 C        -1.317569        -0.086785        -0.230256
 C        -2.755374        -0.092480        -0.275534
 O        -3.373889         0.877792        -1.178155
 C        -3.240361         0.078944         1.292709
 C        -4.665392         0.732636         1.363707
 C        -5.257834         0.682953         2.752899
 O        -4.671478         0.267173         3.712219
 H         1.745481        -0.568068         0.246508
 H         1.708367         1.129434         0.788262
 H         1.091563        -0.122595         1.816070
 H        -3.057998        -1.049073        -0.828682
 H        -2.869251         1.691760        -1.317614
 H        -3.294672        -0.887285         1.778383
 H        -2.420351         0.746304         1.623099
 H        -4.909795         1.745942         0.939791
 H        -5.438339         0.004162         0.862386
 H        -6.388571         0.972322         2.794342
