19
Iteration:  1455
 C         1.463982        -0.139538        -0.171460
 C         0.058627        -0.066787        -0.000277
 C        -1.162803         0.067717         0.072322
 C        -2.614871         0.150692         0.113759
 O        -3.057463         1.356993        -0.577096
 C        -3.255616         0.311985         1.442375
 C        -4.780473         0.210786         1.360539
 C        -5.280270         0.000827         2.775066
 O        -5.692968         0.851136         3.502223
 H         1.833770        -1.166629        -0.088067
 H         1.876113         0.353771        -1.141683
 H         1.885663         0.434759         0.666557
 H        -3.208424        -0.740106        -0.310994
 H        -3.013121         1.146487        -1.538424
 H        -3.010017        -0.571772         2.049931
 H        -3.005803         1.239175         1.990141
 H        -5.317509         1.091617         0.998316
 H        -5.049357        -0.689661         0.660369
 H        -5.147258        -1.079358         2.992144
