19
Iteration:  2631
 C         1.354755         0.252807         0.134267
 C        -0.098565         0.056344         0.003914
 C        -1.334948        -0.101266        -0.060178
 C        -2.807439        -0.113345        -0.045474
 O        -3.401435         0.880010        -0.899732
 C        -3.109544         0.065054         1.457954
 C        -4.621101        -0.298972         1.731437
 C        -5.396417         0.692078         2.546806
 O        -4.967089         1.253284         3.552886
 H         1.665057         1.301664         0.386405
 H         1.830927        -0.490287         0.886147
 H         1.862858         0.016296        -0.826524
 H        -3.227848        -1.049910        -0.375704
 H        -3.292132         1.744460        -0.485465
 H        -2.571167        -0.628739         2.012973
 H        -2.887341         1.087611         1.517046
 H        -5.175417        -0.358570         0.797155
 H        -4.658468        -1.302121         2.101666
 H        -6.499616         0.682970         2.479682
