19
Iteration:  4767charge 0 multiplicity 1
 C         1.201715         0.302133         0.238668
 C        -0.226292         0.101208         0.449322
 C        -1.444491        -0.136772         0.490089
 C        -2.890299        -0.064695         0.187459
 O        -3.116286         0.114892        -1.182435
 C        -3.703215         1.204048         0.681062
 C        -4.959373         0.900087         1.393269
 C        -5.064334         0.212509         2.755270
 O        -4.307454         0.313383         3.701213
 H         1.699985        -0.636996        -0.116080
 H         1.358780         1.087425        -0.589436
 H         1.566005         0.739147         1.219121
 H        -3.378754        -0.960094         0.786896
 H        -2.546838        -0.545606        -1.628086
 H        -2.858325         1.653165         1.206040
 H        -3.964810         1.775900        -0.234319
 H        -5.545359         1.841798         1.374611
 H        -5.582134         0.242339         0.699427
 H        -5.912303        -0.554164         2.827035
