19
Iteration:   870charge 0 multiplicity 1
 C         1.463883        -0.309540        -0.236005
 C         0.004228        -0.045312        -0.189050
 C        -1.204705        -0.038544        -0.037074
 C        -2.719800         0.142183         0.072233
 O        -2.811003         1.539285        -0.528301
 C        -3.146596         0.215386         1.558673
 C        -4.716246         0.408266         1.490907
 C        -5.347578         0.764975         2.824244
 O        -6.027650         0.026102         3.510602
 H         1.877114        -0.409178         0.747398
 H         1.696164        -1.198097        -0.820125
 H         2.050339         0.441019        -0.767138
 H        -3.362658        -0.472437        -0.463020
 H        -2.098956         1.612755        -1.238484
 H        -2.749348        -0.493614         2.236037
 H        -2.490400         1.037644         1.933631
 H        -4.700294         1.329113         0.748606
 H        -4.881364        -0.565902         1.069915
 H        -4.959482         1.769171         3.215571
