19
Iteration:  2210
 C         1.372889         0.297391        -0.186682
 C        -0.071561         0.111628         0.241030
 C        -1.271687         0.098640         0.404216
 C        -2.748484        -0.066535         0.163957
 O        -3.415668         1.087346        -0.294113
 C        -3.346917        -0.644573         1.392313
 C        -4.893258        -0.429223         1.500330
 C        -5.335762         0.639536         2.455136
 O        -4.707244         1.584377         2.864949
 H         1.409858         0.738048        -1.238069
 H         2.000971         0.822166         0.488335
 H         1.780177        -0.766408        -0.198283
 H        -2.889510        -0.822461        -0.672364
 H        -3.011345         1.819671         0.207582
 H        -3.003892        -1.688799         1.479152
 H        -2.864969         0.017590         2.146490
 H        -5.267188        -0.447683         0.470411
 H        -5.263180        -1.370579         1.999662
 H        -6.388147         0.659396         2.715158
