19
Iteration:  3445charge 0 multiplicity 1
 C         1.406035        -0.055591        -0.340845
 C         0.067593        -0.005805         0.153549
 C        -1.181437         0.079255         0.042720
 C        -2.641915         0.101121         0.094881
 O        -3.429487         1.114224        -0.466153
 C        -3.117939         0.016622         1.567044
 C        -4.605690        -0.384296         1.685844
 C        -5.360972         0.327786         2.734147
 O        -5.435648         1.507153         3.052158
 H         1.556099        -0.814815        -1.092547
 H         1.715194         0.953319        -0.694487
 H         2.036730        -0.392086         0.465387
 H        -3.226547        -0.820734        -0.273389
 H        -2.900770         1.863315        -0.793963
 H        -2.383149        -0.630034         1.982747
 H        -3.007240         0.990895         2.045088
 H        -5.097987        -0.399376         0.730168
 H        -4.584837        -1.514403         1.890847
 H        -6.076395        -0.336657         3.290191
