19
Iteration:  3439charge 0 multiplicity 1
 C         1.446710        -0.064296        -0.325574
 C         0.027603        -0.058009         0.141311
 C        -1.153827         0.079490         0.027041
 C        -2.667851         0.167559         0.034376
 O        -3.463352         1.121671        -0.448948
 C        -3.098965         0.057801         1.579346
 C        -4.588644        -0.407133         1.702756
 C        -5.366854         0.311796         2.768227
 O        -5.421510         1.494053         3.011764
 H         1.661568        -0.873455        -1.071417
 H         1.817623         0.929457        -0.660058
 H         1.950629        -0.303390         0.674303
 H        -3.098469        -0.728675        -0.411252
 H        -3.105167         1.919278        -0.858503
 H        -2.400605        -0.723674         2.049938
 H        -3.010974         0.990019         2.198179
 H        -5.087025        -0.571177         0.685306
 H        -4.718574        -1.405283         2.068626
 H        -6.052018        -0.340653         3.360490
