19
Iteration:  2366
 C         0.964338         0.403900         0.721798
 C        -0.335255         0.192895         0.109663
 C        -1.500082         0.042901        -0.270882
 C        -2.961466        -0.141314        -0.137973
 O        -3.705416         1.179301        -0.307024
 C        -3.251568        -0.814489         1.215154
 C        -4.691640        -0.648010         1.851942
 C        -4.827476         0.861936         2.176379
 O        -4.153862         1.561526         2.927634
 H         1.479297         1.323923         0.378201
 H         0.847612         0.483297         1.786886
 H         1.526077        -0.432210         0.384658
 H        -3.479444        -0.864082        -0.792971
 H        -3.094896         1.855972         0.047532
 H        -2.836781        -1.774863         0.919576
 H        -2.585838        -0.351014         1.949725
 H        -5.484117        -1.064979         1.236813
 H        -4.675384        -1.334018         2.713935
 H        -5.703972         1.321385         1.608735
