19
Iteration:  1165
 C         1.510368        -0.147247        -0.148094
 C         0.004449        -0.017905        -0.228071
 C        -1.165477        -0.011817        -0.006240
 C        -2.648150         0.218218         0.021019
 O        -3.009586         1.355625        -0.709363
 C        -3.122254         0.240550         1.569627
 C        -4.632114         0.217963         1.586577
 C        -5.350732        -0.028384         2.842435
 O        -5.915805         0.858029         3.455085
 H         1.811472        -0.979316         0.572602
 H         1.978611        -0.489386        -1.057413
 H         2.028902         0.780889         0.215071
 H        -3.305183        -0.558314        -0.544514
 H        -2.794935         2.113970        -0.167923
 H        -2.800953        -0.746650         1.946850
 H        -2.861276         1.115068         2.197875
 H        -5.030749         1.278716         1.334430
 H        -4.929504        -0.687424         1.046706
 H        -5.471257        -1.130695         3.046973
