19
Iteration:   997charge 0 multiplicity 1
 C         1.457320        -0.178258        -0.350705
 C         0.022789        -0.175332        -0.322697
 C        -1.123108         0.017761        -0.063486
 C        -2.443895         0.206215         0.135872
 O        -3.067994         1.314630        -0.505001
 C        -2.971410         0.314691         1.605564
 C        -4.485628         0.518368         1.723981
 C        -5.249847         0.244071         3.036041
 O        -6.435381         0.461770         3.178641
 H         1.871853        -0.584903         0.546533
 H         1.915095        -0.900963        -1.124689
 H         1.904308         0.806382        -0.467208
 H        -2.807260        -0.753367        -0.121726
 H        -2.655206         1.405106        -1.364469
 H        -2.774516        -0.699863         2.059807
 H        -2.567245         1.144937         2.162881
 H        -4.725495         1.558794         1.631747
 H        -4.948975        -0.095982         0.907172
 H        -4.683243         0.083711         3.987689
