19
Iteration:  2319
 C         0.933732         0.273019         0.677258
 C        -0.447085         0.161820         0.175693
 C        -1.540757         0.070889        -0.417259
 C        -2.961090         0.023285        -0.107103
 O        -3.611606         1.260924        -0.083788
 C        -3.142103        -0.892659         1.248730
 C        -4.527433        -0.704026         1.902822
 C        -4.890806         0.765395         2.132107
 O        -4.272590         1.691127         2.682143
 H         1.406881         1.177875         0.236155
 H         0.827215         0.634033         1.641766
 H         1.646916        -0.575137         0.505714
 H        -3.455002        -0.586504        -0.827178
 H        -3.345136         1.880164         0.651968
 H        -3.001668        -1.961768         1.186167
 H        -2.389084        -0.421602         1.825937
 H        -5.181264        -1.310875         1.326265
 H        -4.458650        -1.425728         2.818915
 H        -5.991060         0.784492         1.862113
