19
Iteration:  2747
 C         1.360410        -0.321288        -0.269010
 C         0.004677         0.048261         0.149784
 C        -1.176047         0.363544         0.208605
 C        -2.642146         0.180111         0.102081
 O        -3.222403         0.590015        -1.172682
 C        -3.366108         0.688358         1.376605
 C        -4.566068        -0.163149         1.693734
 C        -5.287928         0.181739         3.017572
 O        -5.477054         1.288934         3.520941
 H         1.923417         0.363320         0.344173
 H         1.670209        -1.175069         0.190187
 H         1.798240        -0.164656        -1.233454
 H        -2.700734        -0.880969        -0.128165
 H        -2.956191         1.496991        -1.324868
 H        -2.626624         0.600368         2.175130
 H        -3.735695         1.655373         1.040989
 H        -5.297550         0.131706         0.830650
 H        -4.535074        -1.340855         1.658925
 H        -5.292202        -0.708370         3.694639
