19
Iteration:  1164
 C         1.518513        -0.147604        -0.151386
 C         0.018243        -0.019962        -0.235108
 C        -1.160127        -0.010805        -0.002551
 C        -2.657291         0.215087         0.027047
 O        -3.006344         1.355271        -0.711827
 C        -3.136768         0.239499         1.572390
 C        -4.635982         0.225366         1.585530
 C        -5.353618        -0.025917         2.840212
 O        -5.921544         0.858169         3.461420
 H         1.807864        -0.963249         0.555758
 H         1.999530        -0.499824        -1.059261
 H         2.027112         0.773898         0.210193
 H        -3.310171        -0.570987        -0.543569
 H        -2.803786         2.138882        -0.171794
 H        -2.756759        -0.735985         1.915583
 H        -2.878795         1.102890         2.186578
 H        -5.007218         1.250482         1.366161
 H        -4.938084        -0.697889         1.050668
 H        -5.437731        -1.149036         3.032228
