19
Iteration:   495charge 0 multiplicity 1
 C         1.458442        -0.518614        -0.266045
 C         0.077044        -0.045832         0.027963
 C        -1.143527         0.167247         0.018449
 C        -2.611976         0.236324         0.130834
 O        -3.186881         1.273755        -0.723158
 C        -3.050034         0.540578         1.513119
 C        -4.595383         0.766919         1.554663
 C        -5.320898         0.693026         2.968866
 O        -5.940082        -0.290903         3.313969
 H         2.197432        -0.296564         0.579440
 H         1.390354        -1.652400        -0.276721
 H         1.889289        -0.268365        -1.263882
 H        -3.108132        -0.631239        -0.309786
 H        -2.527417         1.900968        -1.025460
 H        -2.600718        -0.171018         2.333560
 H        -2.731824         1.557938         1.938665
 H        -4.868343         1.723878         1.061485
 H        -5.136503         0.071723         0.844968
 H        -5.272039         1.694471         3.466265
