19
Iteration:  4696charge 0 multiplicity 1
 C         1.293505         0.091733         0.462469
 C        -0.130697         0.191317         0.140585
 C        -1.355734         0.357904         0.154618
 C        -2.768576         0.052712         0.214959
 O        -3.371910         0.012417        -1.126932
 C        -3.624104         1.068874         1.032067
 C        -5.020660         0.642634         1.309382
 C        -5.244084         0.394600         2.814197
 O        -4.282525         0.258262         3.541268
 H         1.674797        -0.889640         0.801851
 H         1.978036         0.406735        -0.384060
 H         1.411108         0.838888         1.260612
 H        -2.785670        -0.995602         0.653991
 H        -2.677495        -0.425808        -1.671372
 H        -2.934811         1.227591         1.906409
 H        -3.519839         1.865075         0.292561
 H        -5.680607         1.523059         1.084044
 H        -5.469188        -0.205418         0.835602
 H        -6.309644         0.448159         3.220162
