19
Iteration:  1420charge 0 multiplicity 1
 C         1.382388        -0.003233        -0.037041
 C        -0.012295        -0.163246         0.097945
 C        -1.186013        -0.079188         0.009688
 C        -2.691676         0.132195        -0.052767
 O        -3.041909         1.552797        -0.724146
 C        -3.275946         0.026033         1.328953
 C        -4.755523         0.089082         1.435110
 C        -5.104503         0.085079         2.892097
 O        -5.707922         0.938245         3.495822
 H         1.924606        -0.914393         0.110667
 H         1.676435         0.473065        -1.024754
 H         1.656588         0.663340         0.770947
 H        -3.202704        -0.579299        -0.783545
 H        -2.128058         1.909960        -0.818801
 H        -2.861605        -0.822959         1.786191
 H        -2.897333         0.832520         2.012013
 H        -5.194680         1.026014         1.028558
 H        -5.425113        -0.824627         1.135671
 H        -4.853932        -0.886262         3.524029
