19
Iteration:  4099charge 0 multiplicity 1
 C         1.188883         0.695732        -0.483251
 C        -0.018113         0.284918         0.214039
 C        -1.079134        -0.175903         0.586552
 C        -2.627239        -0.234841         0.663296
 O        -3.224510        -0.377042        -0.665542
 C        -3.070709         1.140035         1.295806
 C        -4.672712         1.243649         1.387079
 C        -5.619626         0.600475         2.409243
 O        -5.186549        -0.159436         3.287476
 H         1.348074         1.723373        -0.130496
 H         2.167768         0.089508        -0.359173
 H         1.022410         0.795261        -1.562587
 H        -2.925629        -1.081864         1.273101
 H        -3.430388        -1.304316        -0.600047
 H        -2.474801         1.342621         2.219188
 H        -2.826985         1.998275         0.568045
 H        -4.810293         2.345767         1.249542
 H        -5.056719         0.881081         0.469504
 H        -6.657117         0.827427         2.238920
