19
Iteration:  1485
 C         1.546851        -0.272734        -0.256959
 C         0.162560         0.115272        -0.108435
 C        -1.069658         0.143287         0.105763
 C        -2.560346         0.207380         0.169820
 O        -3.075108         1.243095        -0.703265
 C        -3.217320         0.406795         1.556774
 C        -4.778121         0.245396         1.454166
 C        -5.548496        -0.043853         2.700612
 O        -5.756869         0.793501         3.596270
 H         1.652619        -1.323001        -0.243218
 H         2.172165         0.035151        -1.098615
 H         2.034380         0.176860         0.572540
 H        -2.990839        -0.736002        -0.037267
 H        -3.313280         0.936720        -1.577847
 H        -2.870624        -0.336230         2.208554
 H        -2.833404         1.249901         2.096013
 H        -5.166348         1.213028         1.143303
 H        -4.923332        -0.433630         0.591972
 H        -5.896634        -1.209711         2.782202
