19
Iteration:    18charge 0 multiplicity 1
 C         1.519810        -0.128838        -0.078129
 C         0.016234        -0.095816        -0.102133
 C        -1.161759         0.127275         0.179992
 C        -2.684279         0.136056        -0.017578
 O        -3.055574         1.329475        -0.800740
 C        -3.231155         0.132464         1.348569
 C        -4.741354         0.340446         1.432419
 C        -5.107757         0.699183         2.901768
 O        -5.964118         0.226713         3.622190
 H         1.890948         0.194643         0.898322
 H         1.925544        -1.169264        -0.282590
 H         1.903777         0.580435        -0.821133
 H        -2.988836        -0.795650        -0.557206
 H        -2.224255         1.593310        -1.203935
 H        -3.119052        -0.879283         1.834749
 H        -2.641985         0.685017         2.161154
 H        -5.096371         1.184792         0.794430
 H        -5.238052        -0.593338         1.124059
 H        -4.452345         1.521733         3.111223
