19
Iteration:  1173
 C         1.428825        -0.155767        -0.109334
 C        -0.006995        -0.011886        -0.161336
 C        -1.247769        -0.015742        -0.047589
 C        -2.589966         0.228050         0.022426
 O        -3.039502         1.378425        -0.691993
 C        -3.039012         0.228886         1.537563
 C        -4.616355         0.206436         1.567618
 C        -5.339212        -0.051363         2.859180
 O        -5.878590         0.868551         3.427232
 H         1.690356        -0.910825         0.592456
 H         1.798309        -0.361751        -1.137204
 H         1.912169         0.772523         0.188347
 H        -3.107312        -0.666953        -0.435722
 H        -2.680778         2.121535        -0.177481
 H        -2.849182        -0.651955         2.159916
 H        -2.547939         1.023768         2.085750
 H        -5.054941         0.980690         1.044674
 H        -4.939568        -0.552675         0.785766
 H        -5.633497        -1.076854         3.277891
