19
Iteration:  4021
 C         1.257738         0.663963         0.029254
 C        -0.109055         0.223021         0.289913
 C        -1.231208        -0.128827         0.345513
 C        -2.708632        -0.124934         0.541333
 O        -3.517179        -0.390129        -0.699070
 C        -3.231878         1.217456         0.995125
 C        -4.825275         1.248707         1.194291
 C        -5.346716         0.495965         2.515358
 O        -4.612629        -0.139266         3.295473
 H         1.403343         1.766409         0.055307
 H         2.001772         0.157677         0.727514
 H         1.570623         0.285226        -0.971871
 H        -2.944795        -0.928000         1.236570
 H        -3.714913        -1.303841        -0.525947
 H        -3.020991         1.232884         2.111931
 H        -2.681817         2.140032         0.641631
 H        -5.231145         2.291093         1.248059
 H        -5.485905         0.773772         0.526162
 H        -6.472601         0.597476         2.652052
