19
Iteration:  4024charge 0 multiplicity 1
 C         1.255999         0.668057         0.007838
 C        -0.101886         0.233321         0.269900
 C        -1.229413        -0.146670         0.376929
 C        -2.715983        -0.120223         0.551775
 O        -3.495924        -0.401493        -0.722251
 C        -3.232155         1.182986         1.054601
 C        -4.834173         1.270428         1.185735
 C        -5.347647         0.515986         2.503316
 O        -4.609054        -0.139711         3.295838
 H         1.321609         1.739564         0.056729
 H         2.017160         0.170580         0.671608
 H         1.559718         0.335740        -0.956629
 H        -2.934311        -0.914695         1.242656
 H        -3.755512        -1.339087        -0.546563
 H        -3.002321         1.194229         2.136349
 H        -2.764951         2.149015         0.711862
 H        -5.314479         2.250117         1.265024
 H        -5.511244         0.869260         0.411465
 H        -6.464307         0.643768         2.602680
