19
Iteration:  3900charge 0 multiplicity 1
 C         1.275176         0.037095         0.414522
 C        -0.219831         0.376470         0.465711
 C        -1.446851         0.396134         0.359024
 C        -2.905714         0.114200         0.407859
 O        -3.434610        -0.606171        -0.710394
 C        -3.675169         1.470596         0.705705
 C        -5.065964         1.033391         1.245684
 C        -4.995380         0.354257         2.582420
 O        -4.000633        -0.020338         3.143035
 H         1.905483         0.861274         0.021748
 H         1.699018        -0.174050         1.377992
 H         1.461370        -0.793278        -0.294480
 H        -3.021034        -0.563377         1.239283
 H        -3.406520        -0.210034        -1.602590
 H        -3.134014         2.177490         1.391708
 H        -3.777827         2.134901        -0.162507
 H        -5.840216         1.823134         1.429999
 H        -5.594008         0.466528         0.470659
 H        -5.899661         0.605837         3.210053
