19
Iteration:  2221
 C         1.310497         0.248365        -0.089794
 C        -0.090070         0.133106         0.262827
 C        -1.294284         0.104426         0.304968
 C        -2.730181        -0.076658         0.099349
 O        -3.506517         1.130324        -0.272375
 C        -3.320863        -0.621061         1.441675
 C        -4.774098        -0.466289         1.526507
 C        -5.375623         0.700589         2.381686
 O        -4.599634         1.553337         2.816412
 H         1.405930         0.824957        -1.092669
 H         1.766362         0.867416         0.626280
 H         1.886582        -0.741908        -0.242522
 H        -2.832182        -0.819680        -0.757701
 H        -3.181065         1.879289         0.314948
 H        -3.128364        -1.712302         1.558899
 H        -2.891683        -0.271655         2.405662
 H        -5.471978        -0.423988         0.683932
 H        -5.244472        -1.372312         2.065918
 H        -6.312604         0.355581         2.774107
