19
Iteration:    90charge 0 multiplicity 1
 C         1.396757         0.064649         0.012758
 C        -0.055432        -0.076329        -0.016498
 C        -1.242266        -0.008381        -0.100444
 C        -2.669348         0.046785        -0.051292
 O        -2.938767         1.454007        -0.504677
 C        -3.284694        -0.307587         1.293364
 C        -4.658186         0.216327         1.455450
 C        -4.964595         0.800654         2.804616
 O        -5.897507         0.455779         3.513810
 H         1.651954         0.507961         1.020777
 H         1.844559        -0.842795        -0.055729
 H         1.771454         0.731519        -0.791312
 H        -2.937106        -0.611641        -0.796945
 H        -3.837133         1.492716        -0.822518
 H        -3.029275        -1.301323         1.609250
 H        -2.757188         0.188658         2.096147
 H        -4.805881         1.040856         0.800337
 H        -5.485458        -0.504981         1.244043
 H        -4.325322         1.664610         2.956899
