19
Iteration:  4465charge 0 multiplicity 1
 C         1.258845         0.261535        -0.268746
 C        -0.127318         0.464749        -0.027992
 C        -1.202093         0.233670         0.494353
 C        -2.618390        -0.049950         0.601945
 O        -3.275022        -0.397300        -0.658461
 C        -3.226186         1.236719         1.270076
 C        -4.798595         1.366685         1.429856
 C        -5.460703         0.512817         2.557717
 O        -4.940338        -0.410153         3.155773
 H         1.769972         0.115788         0.721508
 H         1.607530        -0.537276        -0.868379
 H         1.613205         1.209665        -0.807556
 H        -2.782406        -0.870331         1.354913
 H        -3.073037        -1.370027        -0.783010
 H        -2.573785         1.230220         2.155622
 H        -2.847940         2.158206         0.814543
 H        -5.153867         2.447942         1.622712
 H        -5.442638         1.045800         0.571987
 H        -6.580779         0.862119         2.747204
