19
Iteration:   311
 C         1.570839        -0.192601        -0.273820
 C         0.096442        -0.045474        -0.186171
 C        -1.097923        -0.008273        -0.089575
 C        -2.547435         0.137732         0.021175
 O        -3.122687         1.391864        -0.488815
 C        -3.025686         0.128174         1.522409
 C        -4.622892         0.255976         1.635374
 C        -5.223748         0.663137         2.935679
 O        -6.324225         0.367320         3.397141
 H         2.063898         0.305647         0.532229
 H         1.851568        -1.244511        -0.292020
 H         1.881472         0.258762        -1.190735
 H        -3.164462        -0.609839        -0.585441
 H        -2.599300         1.731080        -1.215589
 H        -2.671417        -0.833658         1.943659
 H        -2.516992         1.055396         1.961026
 H        -4.831586         0.926114         0.793389
 H        -5.204317        -0.667098         1.295102
 H        -4.501052         1.420627         3.628086
