19
Iteration:  1410
 C         1.436047         0.008725         0.037964
 C        -0.051467        -0.121187         0.080019
 C        -1.271888        -0.097645        -0.080975
 C        -2.709547         0.205873        -0.138694
 O        -2.966634         1.489943        -0.714282
 C        -3.262642        -0.010249         1.313684
 C        -4.801177         0.062739         1.481498
 C        -5.144660         0.066154         2.962824
 O        -5.724267         0.992184         3.520974
 H         1.997519        -0.905292         0.111276
 H         1.709657         0.445541        -1.001604
 H         1.809602         0.737507         0.756460
 H        -3.151208        -0.600512        -0.834665
 H        -2.219283         2.119655        -0.527545
 H        -2.901413        -1.008919         1.562863
 H        -2.647216         0.665963         1.911046
 H        -5.141873         0.923544         0.885802
 H        -5.193241        -0.888372         0.930251
 H        -4.576140        -0.800181         3.601797
