19
Iteration:   542
 C         1.337240        -0.479742         0.021863
 C        -0.045809        -0.213208        -0.110019
 C        -1.218449         0.183677        -0.035464
 C        -2.682441         0.290018         0.043507
 O        -2.951076         1.465678        -0.845146
 C        -3.137135         0.585051         1.441298
 C        -4.710238         0.694789         1.572606
 C        -5.155292         0.610014         2.993726
 O        -5.847861        -0.304920         3.444816
 H         1.722506         0.013880         0.903165
 H         1.651534        -1.612424         0.012875
 H         1.824194        -0.028805        -0.856764
 H        -2.973452        -0.623662        -0.401390
 H        -2.915552         1.037172        -1.722823
 H        -2.630287        -0.092310         2.075554
 H        -2.809052         1.605687         1.853607
 H        -5.086026         1.667439         1.065986
 H        -5.054446        -0.237880         0.954284
 H        -4.630432         1.390763         3.565696
