19
Iteration:  4707
 C         1.237405         0.143566         0.401724
 C        -0.161834         0.130006         0.253997
 C        -1.374943         0.369320         0.212581
 C        -2.808522         0.030721         0.260722
 O        -3.304788         0.006390        -1.232890
 C        -3.592573         1.015032         1.093793
 C        -5.074383         0.690259         1.301650
 C        -5.200409         0.403737         2.791180
 O        -4.213526         0.289947         3.511793
 H         1.553690        -0.891368         0.654591
 H         1.814559         0.501662        -0.516751
 H         1.575090         0.758976         1.250989
 H        -3.018875        -1.029523         0.555987
 H        -2.755913        -0.651197        -1.646115
 H        -3.302217         1.274138         2.145036
 H        -3.641492         2.032001         0.713056
 H        -5.794363         1.474779         0.921056
 H        -5.158411        -0.105505         0.615069
 H        -6.257625         0.225944         3.223926
