19
Iteration:   411charge 0 multiplicity 1
 C         1.480943        -0.255809        -0.537518
 C         0.100216        -0.119536        -0.027654
 C        -1.129032        -0.051366         0.104603
 C        -2.589892         0.156364         0.174566
 O        -2.806215         1.255626        -0.701629
 C        -3.132484         0.556119         1.604497
 C        -4.696854         0.645743         1.628045
 C        -5.369992         0.688829         2.961862
 O        -6.228560        -0.102532         3.367883
 H         2.192562         0.255379         0.026522
 H         1.783509        -1.352274        -0.644594
 H         1.452529         0.236075        -1.474168
 H        -3.171787        -0.784662        -0.209155
 H        -1.952532         1.548439        -1.126866
 H        -2.881549        -0.313945         2.238114
 H        -2.679288         1.570735         1.820470
 H        -5.168912         1.576250         1.118496
 H        -5.076181        -0.263572         0.971806
 H        -4.933093         1.367893         3.900430
