19
Iteration:  4282
 C         1.150108         0.415056        -0.526139
 C        -0.167423         0.035350        -0.102575
 C        -1.141240         0.154587         0.633598
 C        -2.617238         0.136272         0.989628
 O        -3.352323        -0.348779        -0.085791
 C        -3.181647         1.478501         1.259657
 C        -4.663884         1.480513         1.411586
 C        -5.328657         0.223432         2.009033
 O        -5.066790        -0.457308         2.984537
 H         1.723122         0.811248         0.340734
 H         1.688868        -0.404512        -1.066796
 H         1.156606         1.163395        -1.348750
 H        -2.731340        -0.561318         1.914980
 H        -2.886731        -1.218796        -0.185694
 H        -2.605251         1.829400         2.123366
 H        -2.951230         2.164577         0.426608
 H        -5.092312         2.348376         1.893847
 H        -5.049769         1.483592         0.323830
 H        -6.156139        -0.123948         1.292260
