19
Iteration:  2000charge 0 multiplicity 1
 C         1.384221        -0.275330        -0.067613
 C         0.027498         0.011444         0.126125
 C        -1.129882         0.331355         0.275126
 C        -2.633989         0.130133         0.085596
 O        -3.287702         0.916626        -0.837341
 C        -3.196661         0.438330         1.417262
 C        -4.764233         0.033680         1.424801
 C        -5.558218         0.222672         2.614123
 O        -5.203321         1.007715         3.494472
 H         1.472345        -0.352815        -1.158860
 H         2.045864         0.551655         0.314459
 H         1.963131        -1.054703         0.429082
 H        -2.921996        -1.004652        -0.075207
 H        -2.879392         1.822591        -0.830135
 H        -2.792113        -0.100124         2.270473
 H        -3.043538         1.488092         1.736249
 H        -5.276182         0.496578         0.574736
 H        -4.861871        -1.025309         1.172146
 H        -6.406939        -0.547641         2.725937
