19
Iteration:  2402charge 0 multiplicity 1
 C         1.042434         0.497169         0.542364
 C        -0.301972         0.291831         0.062005
 C        -1.487908         0.103673        -0.020785
 C        -2.922979        -0.238616        -0.031300
 O        -3.678817         0.991126        -0.462527
 C        -3.325454        -0.811714         1.286140
 C        -4.787996        -0.455935         1.620733
 C        -4.867063         1.036657         2.172304
 O        -4.122722         1.329703         3.109308
 H         1.602524         1.326254         0.211347
 H         1.223187         0.260536         1.619020
 H         1.637246        -0.350946         0.193407
 H        -3.162819        -1.033433        -0.813688
 H        -3.192598         1.650864         0.060056
 H        -3.272254        -1.908929         1.427663
 H        -2.789948        -0.413607         2.191836
 H        -5.572395        -0.564295         0.832371
 H        -4.961184        -0.950696         2.508036
 H        -5.866263         1.555558         2.000158
