19
Iteration:  3963
 C         1.291025         0.316461         0.461193
 C        -0.151143         0.311843         0.049181
 C        -1.320683         0.168739         0.129120
 C        -2.785275         0.145901         0.330733
 O        -3.494343        -0.713328        -0.594190
 C        -3.455393         1.415024         0.814577
 C        -4.931113         1.303274         1.321103
 C        -5.203236         0.341592         2.555385
 O        -4.400631        -0.155710         3.337798
 H         1.643522         1.398454         0.400721
 H         1.426658        -0.028015         1.460708
 H         1.963375        -0.260771        -0.270421
 H        -2.836654        -0.537002         1.228090
 H        -2.950800        -0.545680        -1.403829
 H        -2.851189         1.659040         1.717465
 H        -3.277197         2.186523         0.079470
 H        -5.219114         2.320460         1.638654
 H        -5.657558         0.956589         0.555398
 H        -6.245843         0.398811         2.931515
