19
Iteration:  2044charge 0 multiplicity 1
 C         1.587483        -0.087383        -0.276155
 C         0.086793         0.077050        -0.064896
 C        -1.114859         0.028704         0.144064
 C        -2.614923         0.041261         0.172588
 O        -3.064021         1.048700        -0.750026
 C        -3.265598         0.201129         1.624912
 C        -4.828709        -0.202738         1.572557
 C        -5.787834         0.447194         2.577255
 O        -5.402370         1.139874         3.517158
 H         1.783404        -0.163200        -1.356040
 H         2.158091         0.721114         0.225633
 H         1.917918        -0.975768         0.277752
 H        -2.656596        -0.875277        -0.424416
 H        -2.679949         1.916475        -0.465036
 H        -2.598868        -0.434467         2.221132
 H        -3.097024         1.241516         1.955535
 H        -5.246309         0.126242         0.624033
 H        -5.044588        -1.260662         1.556100
 H        -6.836766         0.395746         2.288745
