19
Iteration:  1970
 C         1.385772        -0.329141         0.141545
 C         0.067201         0.133102         0.170143
 C        -1.149655         0.201419         0.017552
 C        -2.690318         0.244450         0.092562
 O        -3.266456         0.880990        -1.041091
 C        -3.239917         0.614700         1.437839
 C        -4.835405         0.065497         1.343187
 C        -5.534900         0.160722         2.751840
 O        -5.086454         0.896279         3.613280
 H         1.526932        -0.555603        -0.968709
 H         2.079006         0.431849         0.456589
 H         1.600030        -1.200853         0.838887
 H        -2.909881        -0.819784        -0.082319
 H        -2.984394         1.795194        -1.066757
 H        -2.839295        -0.056724         2.247945
 H        -3.273412         1.699460         1.668176
 H        -5.456875         0.611251         0.545489
 H        -4.842421        -1.010155         0.950308
 H        -6.291776        -0.651381         2.973255
