19
Iteration:  1937
 C         1.372856        -0.268945         0.386357
 C         0.020244         0.029604         0.053229
 C        -1.187366         0.255842         0.041487
 C        -2.723401         0.181908        -0.071156
 O        -3.209539         0.919774        -1.245780
 C        -3.342011         0.611458         1.240201
 C        -4.809757         0.039640         1.366544
 C        -5.472629         0.283837         2.848610
 O        -5.037193         0.738928         3.883840
 H         1.935802        -0.654707        -0.540946
 H         1.844819         0.676120         0.554607
 H         1.402627        -1.141879         1.099593
 H        -3.000226        -0.820953        -0.405750
 H        -2.723699         1.772119        -1.205227
 H        -2.607916         0.420117         2.114060
 H        -3.255358         1.752537         1.202726
 H        -5.544767         0.760303         0.852634
 H        -4.905348        -1.020397         0.936617
 H        -6.497493        -0.125490         2.974230
