19
Iteration:   352
 C         1.411780        -0.109272        -0.412276
 C         0.036708        -0.279497        -0.154564
 C        -1.127436        -0.013413         0.069018
 C        -2.547965         0.150851         0.110992
 O        -2.817177         1.397998        -0.551143
 C        -3.180578         0.340133         1.594942
 C        -4.655385         0.339767         1.580651
 C        -5.182079         0.649894         2.933098
 O        -6.272104         0.194614         3.343506
 H         1.859547         0.539636         0.443409
 H         1.975159        -0.996143        -0.469010
 H         1.587403         0.409612        -1.410404
 H        -2.946826        -0.774068        -0.262940
 H        -2.899716         1.149861        -1.487303
 H        -2.724165        -0.218851         2.318222
 H        -2.818594         1.326866         1.874866
 H        -5.057095         1.293334         1.023944
 H        -5.184046        -0.541053         1.105591
 H        -4.459154         1.131605         3.705737
