19
Iteration:  4569charge 0 multiplicity 1
 C         1.284321         0.421806         0.044247
 C        -0.169906         0.218260         0.161745
 C        -1.355014        -0.106324         0.365916
 C        -2.806088        -0.201208         0.450583
 O        -3.364713        -0.073499        -0.935011
 C        -3.362455         1.089656         1.238938
 C        -4.808259         1.100152         1.272717
 C        -5.271311         0.294889         2.509275
 O        -4.573380         0.143481         3.474539
 H         1.757389         0.012042         0.951708
 H         1.773356         0.033304        -0.921403
 H         1.524511         1.475784         0.127271
 H        -3.273781        -1.128958         0.755928
 H        -3.142495         0.849066        -1.164595
 H        -2.792717         1.037389         2.188881
 H        -2.975829         1.992395         0.715840
 H        -5.264941         2.085573         1.311980
 H        -5.444640         0.479012         0.523227
 H        -6.280864        -0.064864         2.534875
