19
Iteration:  3493charge 0 multiplicity 1
 C         1.446030         0.108654        -0.441992
 C        -0.029863         0.207361        -0.237428
 C        -1.118578        -0.047938         0.289146
 C        -2.532492        -0.068302         0.314863
 O        -3.085697         0.911913        -0.694011
 C        -3.316612         0.001018         1.732927
 C        -4.838541        -0.216794         1.528774
 C        -5.550882         0.370290         2.760275
 O        -5.326109         1.454749         3.255864
 H         1.698058        -0.500103        -1.357522
 H         1.883761         1.128472        -0.594058
 H         1.914774        -0.477468         0.415887
 H        -2.939907        -0.947041        -0.042461
 H        -2.788348         1.829434        -0.547734
 H        -2.992234        -0.943414         2.273529
 H        -3.176813         0.791518         2.515111
 H        -5.154496         0.144694         0.553668
 H        -5.089612        -1.237508         1.526329
 H        -6.483088        -0.125259         3.080739
