19
Iteration:  2891charge 0 multiplicity 1
 C         1.342914         0.076888         0.014103
 C        -0.121072        -0.058571        -0.003628
 C        -1.339281        -0.007087         0.045482
 C        -2.737973        -0.011644        -0.026056
 O        -3.404432         0.935035        -0.831818
 C        -3.166940         0.358438         1.438424
 C        -4.516077        -0.435151         1.876667
 C        -5.298213         0.334224         2.946820
 O        -5.140226         1.525698         3.080210
 H         1.674649         0.425520         1.021419
 H         1.725048        -0.952934        -0.070244
 H         1.712978         0.819910        -0.717757
 H        -3.107921        -1.061815        -0.246440
 H        -3.137349         0.913287        -1.781324
 H        -2.397102         0.302447         2.228883
 H        -3.407519         1.410202         1.231624
 H        -5.116399        -0.796359         0.981270
 H        -4.258169        -1.487686         2.406223
 H        -5.950123        -0.244289         3.631527
