19
Iteration:  1047charge 0 multiplicity 1
 C         1.487160        -0.134938        -0.390496
 C         0.035499        -0.073273        -0.178043
 C        -1.112298        -0.165831        -0.087855
 C        -2.532191         0.170602         0.142183
 O        -2.980867         1.358394        -0.502839
 C        -2.971920         0.327647         1.587686
 C        -4.630738         0.499415         1.620430
 C        -5.260636         0.152499         2.970921
 O        -6.362790         0.556140         3.317963
 H         2.091352        -0.663724         0.420756
 H         1.768546        -0.686046        -1.245620
 H         1.867409         0.913140        -0.421693
 H        -3.058930        -0.775400        -0.182821
 H        -2.526631         1.246965        -1.391684
 H        -2.761401        -0.633024         2.061794
 H        -2.589563         1.316907         2.006427
 H        -4.707035         1.641216         1.457938
 H        -5.065349        -0.042841         0.768323
 H        -4.744265        -0.503654         3.687055
