19
Iteration:   174charge 0 multiplicity 1
 C         1.315977         0.022277         0.115687
 C        -0.073413         0.004781        -0.106760
 C        -1.266898        -0.055238        -0.245446
 C        -2.642501         0.145676        -0.188197
 O        -2.986410         1.502094        -0.569888
 C        -3.143963        -0.250799         1.343420
 C        -4.669487        -0.088713         1.651078
 C        -4.940447         0.702992         2.908333
 O        -6.010689         0.641352         3.450247
 H         1.617066         0.453975         1.070465
 H         1.773636        -1.035631         0.132047
 H         1.868959         0.603678        -0.641304
 H        -3.142062        -0.598947        -0.954862
 H        -2.234427         2.144346        -0.483121
 H        -2.860031        -1.288573         1.395127
 H        -2.653855         0.564355         1.943929
 H        -5.157353         0.454258         0.743266
 H        -5.219317        -0.999879         1.818651
 H        -4.028786         1.399350         3.325637
