19
Iteration:   736
 C         1.288841        -0.573569         0.205640
 C        -0.098344        -0.065574         0.164679
 C        -1.235082         0.293972        -0.176564
 C        -2.663669         0.293419        -0.157487
 O        -3.117267         1.616083        -0.654496
 C        -3.241003         0.173496         1.232997
 C        -4.747807         0.390153         1.336492
 C        -5.142245         0.699732         2.784918
 O        -5.476800        -0.047719         3.700065
 H         1.731873        -0.579434         1.170319
 H         1.236740        -1.640544        -0.163367
 H         1.894577        -0.005889        -0.463314
 H        -3.102883        -0.546182        -0.805625
 H        -2.330986         2.179218        -0.766541
 H        -3.014129        -0.877724         1.678190
 H        -2.733821         1.011833         1.710862
 H        -4.885864         1.231177         0.535388
 H        -5.216332        -0.514019         0.937445
 H        -5.024997         1.860449         2.935968
