19
Iteration:   200
 C         1.495937        -0.075674         0.037230
 C        -0.007836        -0.006578        -0.041033
 C        -1.263266        -0.005474        -0.114417
 C        -2.749683         0.199592        -0.172799
 O        -3.100610         1.497528        -0.628374
 C        -3.155832        -0.174121         1.330346
 C        -4.624831        -0.115374         1.611998
 C        -4.943746         0.613692         2.884798
 O        -6.033968         0.687746         3.452111
 H         1.889162         0.354818         0.980724
 H         1.828188        -1.028418         0.067129
 H         2.048452         0.460822        -0.731853
 H        -3.189975        -0.575948        -0.799405
 H        -3.069306         2.276745        -0.007139
 H        -2.786021        -1.191451         1.281807
 H        -2.459660         0.518902         1.995318
 H        -5.020418         0.491169         0.875073
 H        -5.048917        -1.166629         1.590277
 H        -4.088732         1.428128         3.305446
