19
Iteration:   940charge 0 multiplicity 1
 C         1.469678        -0.357564        -0.437232
 C         0.037985        -0.028910         0.023258
 C        -1.147190         0.138286         0.070094
 C        -2.502333         0.213938         0.078595
 O        -3.073243         1.313209        -0.556423
 C        -3.019546         0.239355         1.475676
 C        -4.586260         0.510727         1.587153
 C        -5.170907         0.483344         2.989355
 O        -6.332197         0.254617         3.285316
 H         2.146921        -0.675688         0.405467
 H         1.437142        -1.062831        -1.281174
 H         1.867081         0.566330        -0.904943
 H        -2.758771        -0.776999        -0.220738
 H        -2.389778         1.730432        -1.146950
 H        -2.799410        -0.696130         2.013157
 H        -2.642497         0.858198         2.318245
 H        -4.723452         1.567847         1.354457
 H        -5.291797        -0.057054         0.834037
 H        -4.383591         0.821713         3.703033
