19
Iteration:  3619charge 0 multiplicity 1
 C         1.416601         0.547148        -0.041257
 C         0.079202         0.057027        -0.061485
 C        -1.084675        -0.197226         0.093519
 C        -2.616441        -0.298096         0.133190
 O        -3.276845         0.297704        -1.010268
 C        -3.387284         0.261909         1.459618
 C        -4.975528         0.329629         1.425974
 C        -5.580312         0.936485         2.726362
 O        -4.986110         0.842077         3.793842
 H         1.872477         0.641258        -1.034826
 H         1.548975         1.526234         0.507782
 H         2.027115        -0.210720         0.464442
 H        -2.715255        -1.381930         0.143027
 H        -2.671072         0.294045        -1.776227
 H        -3.089297        -0.360224         2.304496
 H        -3.122677         1.306816         1.679759
 H        -5.118967         1.063687         0.587626
 H        -5.330641        -0.712444         1.237712
 H        -6.418763         1.687937         2.700300
