19
Iteration:  3600charge 0 multiplicity 1
 C         1.399093         0.478074        -0.146094
 C        -0.088416         0.201755        -0.119066
 C        -1.172535        -0.271234         0.128758
 C        -2.646735        -0.370764         0.232063
 O        -3.121177         0.421707        -0.872284
 C        -3.292655         0.233462         1.471414
 C        -4.909150         0.269074         1.392618
 C        -5.494012         0.888796         2.618012
 O        -5.086469         0.916894         3.787793
 H         1.801111         0.535643        -1.126395
 H         1.608874         1.462866         0.303836
 H         1.972670        -0.188555         0.451482
 H        -3.135554        -1.411900         0.092380
 H        -2.368933         0.734723        -1.404445
 H        -3.165658        -0.329985         2.357581
 H        -2.877851         1.243466         1.582912
 H        -5.277104         0.752181         0.436123
 H        -5.240019        -0.851297         1.476197
 H        -6.546598         1.226707         2.435493
