19
Iteration:   310
 C         1.566758        -0.197749        -0.270573
 C         0.094831        -0.038590        -0.186141
 C        -1.101602         0.001742        -0.093407
 C        -2.544682         0.137546         0.018454
 O        -3.121960         1.391243        -0.488057
 C        -3.026433         0.112253         1.521669
 C        -4.622896         0.251925         1.637693
 C        -5.224134         0.666468         2.941172
 O        -6.318326         0.370615         3.392491
 H         2.071790         0.304750         0.558006
 H         1.835251        -1.221459        -0.294084
 H         1.889208         0.246230        -1.204217
 H        -3.160267        -0.640459        -0.561667
 H        -2.580216         1.721520        -1.201332
 H        -2.633084        -0.778930         1.944928
 H        -2.511163         1.027069         1.944505
 H        -4.860031         0.962644         0.787655
 H        -5.223935        -0.673762         1.296504
 H        -4.532531         1.412927         3.615958
