19
Iteration:    73charge 0 multiplicity 1
 C         1.468016         0.005647        -0.034629
 C         0.049679         0.064930         0.078890
 C        -1.155128        -0.120419        -0.005887
 C        -2.632481         0.090689        -0.140185
 O        -2.982432         1.445603        -0.568372
 C        -3.258032        -0.243065         1.255883
 C        -4.802805         0.232064         1.439070
 C        -5.054144         0.800112         2.853413
 O        -5.918030         0.420659         3.620390
 H         2.020191         0.386061         0.826075
 H         1.823377        -1.087035        -0.286050
 H         1.762756         0.571451        -0.928942
 H        -3.092091        -0.658447        -0.931777
 H        -3.828599         1.314660        -1.003806
 H        -3.341735        -1.367555         1.375039
 H        -2.649322         0.430199         1.970314
 H        -4.873201         1.144384         0.747442
 H        -5.571849        -0.492933         1.122985
 H        -4.246701         1.697492         3.109798
