19
Iteration:  2976
 C         1.236610         0.046455         0.070891
 C        -0.098993         0.232464         0.071711
 C        -1.302158         0.297185        -0.205836
 C        -2.682696        -0.113543         0.022221
 O        -3.771590         0.698704        -0.624496
 C        -2.920329        -0.250171         1.594541
 C        -4.430750        -0.445012         1.856293
 C        -5.343492         0.705772         2.436011
 O        -4.974368         1.630114         3.151800
 H         1.604857         0.023387         1.145136
 H         1.769646        -0.864222        -0.483070
 H         1.837281         1.019119        -0.109948
 H        -2.745071        -1.113720        -0.416515
 H        -4.103661         1.307079         0.035358
 H        -2.490346        -1.099665         2.162377
 H        -2.571330         0.726344         1.995064
 H        -4.843753        -0.670301         0.861872
 H        -4.641622        -1.262444         2.467207
 H        -6.395850         0.782106         1.914772
