19
Iteration:  2357
 C         0.946563         0.341478         0.691143
 C        -0.400298         0.207283         0.154854
 C        -1.522435         0.010147        -0.235361
 C        -3.000515        -0.132716        -0.191832
 O        -3.691095         1.184492        -0.240295
 C        -3.251921        -0.777920         1.192534
 C        -4.528787        -0.652168         1.834876
 C        -4.854431         0.839290         2.163354
 O        -4.178741         1.558850         2.872333
 H         1.243697         1.320103         0.326895
 H         0.742388         0.549048         1.811643
 H         1.733132        -0.393336         0.599153
 H        -3.333626        -0.525664        -1.202700
 H        -3.045594         1.828762         0.118591
 H        -2.839133        -1.852355         1.198076
 H        -2.504477        -0.332346         1.919824
 H        -5.441490        -1.053107         1.313233
 H        -4.499700        -0.986915         2.828422
 H        -5.791659         1.313180         1.811977
