19
Iteration:   199
 C         1.499303        -0.072483         0.040282
 C        -0.011343        -0.003854        -0.044240
 C        -1.262632        -0.012629        -0.116746
 C        -2.768732         0.198253        -0.162338
 O        -3.093385         1.502927        -0.634633
 C        -3.156245        -0.182576         1.328926
 C        -4.613093        -0.121556         1.618508
 C        -4.938884         0.620685         2.892373
 O        -6.035621         0.684551         3.448149
 H         1.882032         0.356729         0.991387
 H         1.825936        -1.014485         0.076266
 H         2.063911         0.467685        -0.726425
 H        -3.206000        -0.592047        -0.832859
 H        -3.033380         2.269161        -0.003885
 H        -2.831414        -1.151719         1.260525
 H        -2.498063         0.534390         2.015668
 H        -5.041122         0.514142         0.870287
 H        -5.057957        -1.153946         1.566679
 H        -4.061379         1.425049         3.255987
