19
Iteration:  3847
 C         1.229202         0.150673         0.355919
 C        -0.265849         0.008642         0.406493
 C        -1.451272         0.304922         0.513849
 C        -2.888024         0.099739         0.426632
 O        -3.289404        -0.309938        -1.018130
 C        -3.757384         1.314342         0.742019
 C        -5.152681         0.945077         1.176534
 C        -5.019479         0.356740         2.706006
 O        -3.948005         0.213426         3.317650
 H         1.582415         1.014834        -0.208857
 H         1.643674         0.285556         1.372689
 H         1.736908        -0.700195        -0.088064
 H        -3.171526        -0.699961         1.115800
 H        -2.527808        -0.850553        -1.324539
 H        -3.371951         1.963984         1.596283
 H        -3.884562         2.071323        -0.068826
 H        -5.774892         1.874847         1.271492
 H        -5.794599         0.133774         0.565991
 H        -5.947102        -0.004433         3.216954
