19
Iteration:  2896
 C         1.325177         0.064351         0.066403
 C        -0.149616        -0.036742        -0.035464
 C        -1.332849         0.051663         0.014451
 C        -2.731534        -0.021595         0.004250
 O        -3.434425         0.930589        -0.837109
 C        -3.180983         0.339584         1.440361
 C        -4.484747        -0.455812         1.895647
 C        -5.295311         0.327763         2.910025
 O        -5.104056         1.530818         3.059493
 H         1.659856         0.375701         1.045169
 H         1.742237        -0.924690        -0.204238
 H         1.706098         0.680625        -0.750658
 H        -2.988131        -1.067566        -0.126829
 H        -2.977566         0.858880        -1.686320
 H        -2.489472         0.149953         2.273310
 H        -3.319948         1.444375         1.463859
 H        -5.157559        -0.766615         1.049444
 H        -4.316401        -1.386082         2.385655
 H        -6.061523        -0.191363         3.602609
