19
Iteration:  4364
 C         1.150380         0.301561        -0.363166
 C        -0.210674         0.335554         0.011098
 C        -1.299860         0.055510         0.481427
 C        -2.673484         0.125395         0.928624
 O        -3.480879        -0.499165        -0.100646
 C        -3.161826         1.541511         1.254095
 C        -4.694541         1.499509         1.470687
 C        -5.348564         0.280425         2.043249
 O        -4.706195        -0.474465         2.787152
 H         1.895402         0.422349         0.474118
 H         1.460917        -0.623463        -0.874963
 H         1.349660         1.141640        -1.062688
 H        -2.807888        -0.513834         1.820686
 H        -2.805377        -1.128681        -0.327508
 H        -2.634056         1.743099         2.206492
 H        -2.866635         2.296839         0.493966
 H        -5.065521         2.297965         2.249536
 H        -5.291592         1.760101         0.608640
 H        -6.383468         0.184525         1.693055
