19
Iteration:  2121
 C         1.331153         0.357103        -0.396710
 C         0.030602        -0.168167        -0.017579
 C        -1.155369        -0.233592         0.152773
 C        -2.655837        -0.119803         0.300948
 O        -3.061057         1.110445        -0.288589
 C        -3.269062        -0.134742         1.661741
 C        -4.694116        -0.182527         1.485936
 C        -5.651260         0.586026         2.350406
 O        -5.261700         1.344703         3.239472
 H         1.388078         0.591602        -1.489986
 H         1.570443         1.231845         0.218873
 H         2.194116        -0.365688        -0.195262
 H        -3.083474        -0.940515        -0.365608
 H        -2.453952         1.847613        -0.152760
 H        -2.835860        -1.083424         2.007847
 H        -2.978939         0.530942         2.487711
 H        -5.012218         0.076970         0.474040
 H        -5.200241        -1.185687         1.692940
 H        -6.664272         0.534017         1.844798
