19
Iteration:  4360charge 0 multiplicity 1
 C         1.167455         0.298650        -0.368355
 C        -0.210484         0.346043         0.030159
 C        -1.316783         0.100813         0.532398
 C        -2.712633         0.098775         0.945031
 O        -3.502676        -0.497934        -0.111905
 C        -3.177854         1.514587         1.262360
 C        -4.683372         1.484867         1.474454
 C        -5.317218         0.267795         2.010015
 O        -4.695913        -0.446225         2.775964
 H         1.990436         0.506915         0.321241
 H         1.398371        -0.650154        -0.986142
 H         1.350623         1.090936        -1.076918
 H        -2.712369        -0.566099         1.882357
 H        -2.821926        -1.192257        -0.371327
 H        -2.549595         1.701314         2.153013
 H        -2.878655         2.186714         0.431755
 H        -4.968769         2.210509         2.255047
 H        -5.245859         1.885477         0.611250
 H        -6.381259         0.272248         1.701819
