19
Iteration:  1077
 C         1.380186        -0.178030        -0.435506
 C        -0.034914         0.097919         0.016861
 C        -1.174828        -0.021051         0.181635
 C        -2.602632         0.127922         0.075085
 O        -2.855617         1.327713        -0.645785
 C        -3.130429         0.222524         1.524727
 C        -4.578471         0.528921         1.614817
 C        -5.160994         0.110007         2.951083
 O        -6.194234         0.597424         3.323878
 H         1.937766        -0.836399         0.281643
 H         1.319541        -0.681527        -1.428419
 H         1.929946         0.794667        -0.545482
 H        -3.030064        -0.779686        -0.339070
 H        -2.272446         1.260995        -1.397956
 H        -2.818280        -0.819737         1.841310
 H        -2.485236         0.968837         2.045950
 H        -5.155698         1.508021         1.241732
 H        -5.173432        -0.210727         1.050455
 H        -4.864760        -0.894888         3.441055
