19
Iteration:  4744charge 0 multiplicity 1
 C         1.210988         0.250161         0.260328
 C        -0.232907         0.179553         0.547719
 C        -1.416028        -0.023781         0.443646
 C        -2.850628        -0.036541         0.197686
 O        -3.202417         0.104169        -1.299373
 C        -3.611025         1.192377         0.899667
 C        -5.037094         0.746596         1.310873
 C        -5.100402         0.258921         2.767645
 O        -4.244935         0.333817         3.620819
 H         1.439025        -0.818627         0.048651
 H         1.411495         0.708427        -0.777447
 H         1.901165         0.681178         1.003638
 H        -3.229817        -1.008255         0.685469
 H        -2.917235        -0.707196        -1.736249
 H        -2.938905         1.607120         1.587449
 H        -3.672123         1.846207         0.011077
 H        -5.677301         1.653309         1.355724
 H        -5.566612         0.005831         0.661295
 H        -6.124816        -0.060327         3.068324
