19
Iteration:  3164
 C         1.091184         0.577899        -0.499306
 C        -0.279806         0.311134        -0.034267
 C        -1.256287        -0.190901         0.420834
 C        -2.709117        -0.272679         0.466746
 O        -3.102317         1.051840         0.042451
 C        -3.353343        -0.728848         1.711963
 C        -4.873633        -0.547431         1.802893
 C        -5.330750         0.787752         2.021749
 O        -4.623679         1.610837         2.545444
 H         1.747370        -0.173775        -0.127976
 H         0.975644         0.619255        -1.589134
 H         1.357752         1.592048        -0.188774
 H        -3.053346        -0.854141        -0.450041
 H        -2.934200         1.691380         0.766720
 H        -3.151614        -1.770975         1.879554
 H        -2.800614        -0.187142         2.486426
 H        -5.208707        -0.770348         0.726446
 H        -5.367267        -1.240509         2.610150
 H        -6.393947         1.032135         1.963493
