19
Iteration:  2816
 C         1.317760         0.021764        -0.264682
 C        -0.084920        -0.093056        -0.111118
 C        -1.235043        -0.202043         0.242403
 C        -2.707424         0.059540         0.032826
 O        -2.902112         0.763334        -1.137105
 C        -3.409967         0.671183         1.288069
 C        -4.550517        -0.086683         1.850666
 C        -5.196970         0.259364         3.159287
 O        -5.640867         1.337080         3.491854
 H         1.541282         0.692835         0.573664
 H         1.671364        -0.884822         0.028565
 H         1.619930         0.638115        -1.050654
 H        -3.158125        -0.914103        -0.052634
 H        -1.982924         0.962885        -1.392509
 H        -2.746571         0.544845         2.155779
 H        -3.702313         1.685455         1.081437
 H        -5.432437        -0.206852         1.120746
 H        -4.253157        -1.162158         2.090106
 H        -5.482885        -0.752841         3.566879
