19
Iteration:  2624charge 0 multiplicity 1
 C         1.313271         0.281819         0.099695
 C        -0.127128         0.071806        -0.014596
 C        -1.303091        -0.136206        -0.021771
 C        -2.758047        -0.216438        -0.073630
 O        -3.372952         0.923367        -0.895161
 C        -3.169262         0.012799         1.457251
 C        -4.657489        -0.251202         1.725170
 C        -5.414155         0.734740         2.557731
 O        -4.917334         1.234694         3.539449
 H         1.590648         1.256467         0.434535
 H         1.686439        -0.221936         0.963238
 H         1.975323         0.197521        -0.741983
 H        -3.240300        -1.138909        -0.484383
 H        -3.125120         1.692880        -0.380204
 H        -2.470160        -0.680117         2.032064
 H        -2.919704         1.120290         1.782645
 H        -5.205231        -0.440521         0.713643
 H        -4.687126        -1.247547         2.365893
 H        -6.576732         0.732062         2.411915
