19
Iteration:  1912charge 0 multiplicity 1
 C         1.315240        -0.136908         0.505851
 C        -0.065124        -0.122083         0.139462
 C        -1.248868         0.181610        -0.032792
 C        -2.775152         0.159266        -0.191584
 O        -3.157902         0.954001        -1.349232
 C        -3.355717         0.633735         1.183758
 C        -4.836114         0.191741         1.493196
 C        -5.390940         0.354352         2.816379
 O        -4.922356         0.568015         3.904283
 H         1.977277        -0.509301        -0.255422
 H         1.606284         0.943873         0.706786
 H         1.374755        -0.845172         1.318909
 H        -3.103804        -0.861244        -0.532048
 H        -2.438903         1.642044        -1.371088
 H        -2.689649         0.360811         2.008160
 H        -3.211466         1.749018         1.197334
 H        -5.707071         0.374840         0.831564
 H        -4.747307        -0.930914         1.620526
 H        -6.496829         0.333832         2.791571
