19
Iteration:  4685charge 0 multiplicity 1
 C         1.335664         0.106549         0.506861
 C        -0.094245         0.237580         0.075854
 C        -1.296965         0.299301         0.094656
 C        -2.762099         0.057080         0.153215
 O        -3.417583        -0.000294        -1.025579
 C        -3.502709         1.091678         0.861207
 C        -5.066859         0.639652         1.386182
 C        -5.229189         0.412768         2.793276
 O        -4.364825         0.210468         3.625831
 H         1.411965        -0.931247         0.888362
 H         2.005530         0.314788        -0.376645
 H         1.637586         0.777167         1.337368
 H        -2.894588        -0.871257         0.825973
 H        -2.832253        -0.200255        -1.808560
 H        -3.084547         1.421653         1.879343
 H        -3.719102         2.062997         0.376564
 H        -5.830757         1.412220         1.084982
 H        -5.447507        -0.177169         0.802820
 H        -6.316005         0.410287         3.101216
