19
Iteration:  4480
 C         1.278993         0.381432        -0.277966
 C        -0.171718         0.314852        -0.043855
 C        -1.262392         0.198230         0.530682
 C        -2.733909        -0.136981         0.679823
 O        -3.140043        -0.257707        -0.692869
 C        -3.328357         1.157732         1.200017
 C        -4.792594         1.318766         1.449015
 C        -5.395065         0.544818         2.533858
 O        -4.904915        -0.362340         3.229791
 H         1.821469         0.166829         0.653854
 H         1.462996        -0.574634        -0.888787
 H         1.790938         1.226107        -0.653476
 H        -2.815747        -1.016357         1.314875
 H        -2.996323        -1.125411        -1.071589
 H        -3.011684         1.371723         2.227426
 H        -2.966027         1.813066         0.402717
 H        -4.849415         2.367273         1.612644
 H        -5.323654         1.187496         0.430897
 H        -6.533270         0.849011         2.701060
