19
Iteration:   793
 C         1.449669        -0.338724         0.010085
 C        -0.055166        -0.271885        -0.069731
 C        -1.263826         0.005096        -0.021673
 C        -2.623813         0.357056        -0.008018
 O        -2.819156         1.678520        -0.568494
 C        -3.354783         0.232102         1.298171
 C        -4.964723         0.320611         1.316576
 C        -5.268938         0.735279         2.784974
 O        -5.580636        -0.004219         3.713785
 H         1.762960        -0.279141         1.014325
 H         1.786590        -1.335894        -0.382861
 H         1.960747         0.421721        -0.579050
 H        -3.091649        -0.374405        -0.742782
 H        -2.624377         1.828292        -1.521347
 H        -3.126257        -0.707970         1.762514
 H        -2.908108         0.922258         2.080416
 H        -5.224275         0.852377         0.365657
 H        -5.267174        -0.690186         1.261650
 H        -4.911156         1.850957         2.884655
