19
Iteration:   610
 C         1.203582        -0.467734         0.267035
 C        -0.233148        -0.210194         0.098104
 C        -1.337911         0.110298        -0.165910
 C        -2.745190         0.400666        -0.212385
 O        -2.855173         1.596632        -0.945932
 C        -3.172598         0.577903         1.207423
 C        -4.627474         0.483993         1.544478
 C        -4.986374         0.499888         3.026776
 O        -5.745804        -0.235859         3.633442
 H         1.554965         0.009910         1.201334
 H         1.539431        -1.502773         0.177649
 H         1.658488         0.101597        -0.593229
 H        -3.260799        -0.456658        -0.622481
 H        -2.147915         1.669758        -1.569927
 H        -2.776323        -0.198450         1.771418
 H        -2.576121         1.445312         1.539857
 H        -5.199966         1.384664         1.209365
 H        -5.059000        -0.577861         1.318827
 H        -4.356267         1.355619         3.553431
