19
Iteration:   737charge 0 multiplicity 1
 C         1.289165        -0.573807         0.203270
 C        -0.099077        -0.060083         0.160732
 C        -1.228661         0.293315        -0.171849
 C        -2.672317         0.290829        -0.156177
 O        -3.108202         1.610878        -0.648801
 C        -3.235511         0.175111         1.227212
 C        -4.749300         0.386721         1.321668
 C        -5.148477         0.711103         2.795872
 O        -5.478939        -0.051176         3.706408
 H         1.730093        -0.573052         1.154363
 H         1.236744        -1.653500        -0.167464
 H         1.890723         0.010932        -0.458581
 H        -3.117588        -0.554846        -0.833594
 H        -2.320739         2.190054        -0.783582
 H        -3.052301        -0.852952         1.660257
 H        -2.729301         1.025161         1.728610
 H        -4.896233         1.195054         0.530569
 H        -5.216210        -0.489307         0.951585
 H        -5.022952         1.821084         2.914632
