19
Iteration:  3030charge 0 multiplicity 1
 C         1.290708         0.447447        -0.015603
 C        -0.147246         0.186531        -0.126096
 C        -1.302530        -0.085372         0.082112
 C        -2.842293        -0.235379         0.139800
 O        -3.516034         0.929073        -0.352801
 C        -3.197496        -0.374624         1.596961
 C        -4.732877        -0.624994         2.041250
 C        -5.284976         0.785936         2.206682
 O        -4.713026         1.610284         2.905659
 H         1.817052         0.174594         0.887519
 H         1.814352        -0.166443        -0.834723
 H         1.569719         1.517102        -0.178242
 H        -3.144436        -1.088743        -0.511832
 H        -2.923168         1.508808        -0.842991
 H        -2.699777        -1.284613         1.971082
 H        -2.816601         0.527422         2.130764
 H        -5.321332        -1.012835         1.100376
 H        -4.939363        -1.292432         2.941941
 H        -6.099024         1.074782         1.558086
