19
Iteration:   339charge 0 multiplicity 1
 C         1.552501        -0.112420        -0.372540
 C         0.077112        -0.282611        -0.172958
 C        -1.112652        -0.096604         0.010518
 C        -2.554723         0.198770         0.169251
 O        -2.983228         1.425549        -0.533276
 C        -3.088559         0.314290         1.565686
 C        -4.722220         0.311552         1.576654
 C        -5.185469         0.586115         2.946001
 O        -6.279833         0.276622         3.350606
 H         2.016128         0.576561         0.437732
 H         2.099225        -1.046632        -0.417944
 H         1.652907         0.472487        -1.358383
 H        -3.145755        -0.496752        -0.354101
 H        -2.854895         1.300419        -1.496688
 H        -2.674259        -0.564198         2.127919
 H        -2.840362         1.283622         1.902975
 H        -4.927977         1.134754         0.847009
 H        -5.243398        -0.529232         1.202619
 H        -4.504261         1.349773         3.545698
