19
Iteration:  1479
 C         1.558617        -0.254908        -0.213646
 C         0.124452         0.105366        -0.119422
 C        -1.051052         0.113813         0.092584
 C        -2.588252         0.200220         0.132355
 O        -3.070588         1.274472        -0.686356
 C        -3.220108         0.364281         1.609242
 C        -4.772582         0.257638         1.427186
 C        -5.555792        -0.061437         2.701665
 O        -5.726445         0.809472         3.580230
 H         1.665537        -1.386305        -0.235023
 H         1.989622         0.140657        -1.186342
 H         2.181797         0.211153         0.613549
 H        -3.138812        -0.741658        -0.271735
 H        -3.295429         0.839906        -1.547373
 H        -2.786639        -0.387646         2.380079
 H        -3.097814         1.421586         2.036003
 H        -5.117035         1.247793         1.064121
 H        -5.042327        -0.480323         0.615386
 H        -5.569996        -1.131254         2.857189
