19
Iteration:   786charge 0 multiplicity 1
 C         1.498174        -0.397752         0.023376
 C        -0.039013        -0.205078        -0.085253
 C        -1.236476        -0.005934         0.007276
 C        -2.708966         0.395654        -0.048534
 O        -2.832784         1.707967        -0.605546
 C        -3.375891         0.183493         1.336748
 C        -4.970100         0.299543         1.350912
 C        -5.232519         0.753900         2.795998
 O        -5.559587        -0.002193         3.691175
 H         1.793187        -0.299706         1.141398
 H         1.783445        -1.375737        -0.288224
 H         2.040818         0.428412        -0.531033
 H        -3.242040        -0.438974        -0.628730
 H        -2.555912         1.725284        -1.526447
 H        -3.143205        -0.845410         1.582672
 H        -2.986786         1.000899         1.978750
 H        -5.265894         0.859351         0.497574
 H        -5.318104        -0.746884         1.069873
 H        -5.066074         1.868357         2.958579
