19
Iteration:  2453charge 0 multiplicity 1
 C         1.180112         0.601295         0.139329
 C        -0.193670         0.261979         0.353857
 C        -1.402309         0.001201         0.178700
 C        -2.845676        -0.213183        -0.000905
 O        -3.490837         0.866578        -0.544995
 C        -3.566971        -0.837882         1.351191
 C        -4.918956        -0.211668         1.441031
 C        -5.050712         0.973910         2.413044
 O        -4.164649         1.265731         3.168437
 H         1.244051         1.706121        -0.177169
 H         1.760314         0.738543         1.075342
 H         1.866089         0.052110        -0.595077
 H        -2.949937        -1.107942        -0.610935
 H        -2.717558         1.396540        -0.878671
 H        -3.706143        -1.921614         1.291921
 H        -3.143800        -0.761095         2.363187
 H        -5.556263         0.063070         0.562607
 H        -5.647202        -0.890163         2.137907
 H        -6.067807         1.469972         2.514677
