19
Iteration:  2541charge 0 multiplicity 1
 C         1.183808         0.775486        -0.045211
 C        -0.154000         0.137685         0.162377
 C        -1.316033        -0.284886         0.221147
 C        -2.740555        -0.442520         0.047613
 O        -3.303685         0.862211        -0.427936
 C        -3.521645        -0.649696         1.398454
 C        -4.885899        -0.002243         1.304855
 C        -5.198687         0.807288         2.531520
 O        -4.478057         1.360765         3.345416
 H         0.871105         1.859445        -0.275374
 H         1.934540         0.409902         0.710950
 H         1.550206         0.187293        -0.969601
 H        -2.993190        -1.088130        -0.782128
 H        -2.577183         1.442992        -0.764685
 H        -3.434266        -1.691198         1.779894
 H        -3.115106         0.033239         2.161005
 H        -5.083821         0.771999         0.591360
 H        -5.693646        -0.782219         1.079378
 H        -6.340981         0.957791         2.530061
