19
Iteration:  4663charge 0 multiplicity 1
 C         1.400605         0.064688         0.514422
 C        -0.028682         0.360895         0.111936
 C        -1.283464         0.180181        -0.065982
 C        -2.758282         0.099200         0.132683
 O        -3.549753        -0.148058        -1.131274
 C        -3.511487         1.274117         0.970708
 C        -4.870424         0.751041         1.341431
 C        -5.245980         0.361886         2.832317
 O        -4.526355         0.130643         3.790023
 H         1.472555        -0.835539         1.155682
 H         1.985208         0.294349        -0.412228
 H         1.635401         0.934790         1.196012
 H        -2.736210        -0.791235         0.896953
 H        -2.870990        -0.145425        -1.787257
 H        -2.931985         1.849070         1.853097
 H        -3.634332         2.061322         0.132769
 H        -5.707108         1.321435         0.822376
 H        -5.113823        -0.117382         0.783139
 H        -6.303894         0.312383         2.944331
