19
Iteration:   556
 C         1.354688        -0.437941         0.061839
 C        -0.048645        -0.272225        -0.087891
 C        -1.241365         0.064037        -0.001238
 C        -2.625557         0.337008        -0.121967
 O        -2.959580         1.476289        -0.787184
 C        -3.204267         0.703677         1.390813
 C        -4.734828         0.653827         1.488020
 C        -5.065045         0.526457         2.998941
 O        -5.818502        -0.268907         3.504782
 H         1.670600        -0.016371         1.015159
 H         1.530322        -1.457402         0.134247
 H         1.993660        -0.011041        -0.721984
 H        -3.239099        -0.514291        -0.359595
 H        -3.071821         1.442028        -1.737767
 H        -2.940297        -0.029459         2.118444
 H        -2.652140         1.550468         1.556121
 H        -5.189609         1.612467         1.120763
 H        -5.257472        -0.277461         1.105220
 H        -4.637508         1.221885         3.718950
