19
Iteration:  4015charge 0 multiplicity 1
 C         1.278507         0.640935         0.070053
 C        -0.073305         0.221487         0.322978
 C        -1.298714        -0.091857         0.280196
 C        -2.703372        -0.132606         0.494621
 O        -3.546527        -0.374151        -0.640238
 C        -3.254599         1.284959         0.934260
 C        -4.800335         1.204825         1.240144
 C        -5.310015         0.466202         2.533036
 O        -4.634549        -0.130364         3.284295
 H         1.506693         1.702048         0.072221
 H         1.912069         0.215407         0.837666
 H         1.555450         0.265095        -0.909063
 H        -2.990074        -0.883857         1.274459
 H        -3.713289        -1.348934        -0.649615
 H        -2.894540         1.364811         1.953846
 H        -2.702320         2.027947         0.341259
 H        -5.033149         2.269145         1.231108
 H        -5.398770         0.556495         0.470125
 H        -6.400233         0.466387         2.745991
