19
Iteration:  4900
 C         1.193906         0.318866         0.623435
 C        -0.167057         0.088546         0.146655
 C        -1.354353         0.296130        -0.062104
 C        -2.777395         0.014614         0.242108
 O        -3.529761        -0.413689        -0.867300
 C        -3.508430         1.303474         1.046442
 C        -4.895859         0.952336         1.323140
 C        -5.190927         0.349710         2.646668
 O        -4.225524         0.137052         3.345610
 H         2.034856        -0.191599         0.135618
 H         1.348319         1.407311         0.685134
 H         1.383573        -0.288083         1.613031
 H        -2.623611        -0.785546         1.023740
 H        -3.246885         0.187733        -1.581519
 H        -2.932515         1.515217         1.962586
 H        -3.292525         2.190650         0.464986
 H        -5.538480         1.799821         1.131246
 H        -5.393770         0.201181         0.594890
 H        -6.241643         0.201235         2.884203
