19
Iteration:  4158
 C         1.384454         0.520993        -0.510325
 C        -0.029326         0.340302        -0.219441
 C        -1.033147         0.094831         0.401891
 C        -2.502403        -0.134842         0.819448
 O        -3.276449        -0.558796        -0.311143
 C        -3.200140         1.141945         1.519902
 C        -4.738970         1.326828         1.373196
 C        -5.616317         0.563140         2.272199
 O        -5.298588        -0.179944         3.201619
 H         1.762285         1.274945         0.217413
 H         1.976514        -0.357960        -0.368793
 H         1.532254         0.849531        -1.568087
 H        -2.688332        -0.982803         1.490187
 H        -2.876771        -0.115538        -1.104890
 H        -3.077570         1.085926         2.619427
 H        -2.662985         2.044960         1.188916
 H        -5.147423         2.291397         1.145476
 H        -5.154427         0.676054         0.551598
 H        -6.644277         0.496720         1.887947
