19
Iteration:  4944
 C         1.307975         0.302958         0.520635
 C        -0.147177         0.408706         0.099166
 C        -1.347924         0.224832         0.183108
 C        -2.805645        -0.030115         0.334495
 O        -3.456691        -0.477093        -0.906518
 C        -3.488282         1.278221         0.788410
 C        -4.926215         1.108914         1.403183
 C        -5.126149         0.550072         2.717130
 O        -4.418342        -0.162241         3.386974
 H         1.871901        -0.009400        -0.362803
 H         1.759577         1.194542         0.948860
 H         1.361313        -0.650952         1.189116
 H        -3.158171        -0.685945         1.134720
 H        -2.897038        -1.005422        -1.495274
 H        -2.738495         1.872587         1.338106
 H        -3.621980         1.838739        -0.116562
 H        -5.482685         2.028213         1.525350
 H        -5.482385         0.420442         0.683472
 H        -6.200317         0.797022         3.084181
