19
Iteration:  4870charge 0 multiplicity 1
 C         1.295160         0.319082         0.563999
 C        -0.215091         0.268673         0.399218
 C        -1.402851         0.099039         0.145478
 C        -2.832125        -0.066715         0.181734
 O        -3.641942        -0.280307        -0.962615
 C        -3.463727         1.309380         0.900088
 C        -4.866022         0.909943         1.184485
 C        -5.031463         0.194270         2.579309
 O        -4.229043         0.250685         3.507822
 H         1.598505        -0.417353        -0.201865
 H         1.817428         1.200305         0.315519
 H         1.561141        -0.079754         1.591356
 H        -3.080205        -0.846906         0.944013
 H        -3.778220         0.613775        -1.386144
 H        -2.912957         1.402199         1.860497
 H        -3.145177         2.094459         0.262479
 H        -5.494147         1.777403         1.375788
 H        -5.318168         0.222523         0.494307
 H        -6.106845        -0.193978         2.739473
