19
Iteration:  1338charge 0 multiplicity 1
 C         1.286650         0.010667         0.347966
 C        -0.067307        -0.124464        -0.122360
 C        -1.284439         0.036936        -0.333360
 C        -2.734492         0.180497        -0.236625
 O        -3.200174         1.479954        -0.440279
 C        -3.167966        -0.357502         1.288835
 C        -4.600643         0.115187         1.422884
 C        -4.941098         0.235324         2.895493
 O        -5.663622         1.013122         3.415259
 H         1.737843        -0.878554         0.840439
 H         1.951698         0.227571        -0.473613
 H         1.422590         0.842983         1.077925
 H        -3.164533        -0.459906        -0.970699
 H        -2.491094         2.181504        -0.392579
 H        -3.234501        -1.538449         1.449338
 H        -2.508995         0.347752         1.939382
 H        -5.011138         1.088535         1.072958
 H        -5.388431        -0.659110         1.119815
 H        -4.410236        -0.425494         3.750229
