19
Iteration:   162charge 0 multiplicity 1
 C         1.357064         0.072001         0.139752
 C        -0.071485        -0.023430        -0.108849
 C        -1.257133        -0.054799        -0.319848
 C        -2.720755         0.090183        -0.182588
 O        -2.971168         1.460024        -0.443056
 C        -3.137745        -0.182500         1.256436
 C        -4.603855        -0.033557         1.536188
 C        -4.989313         0.729130         2.891847
 O        -6.036944         0.649837         3.537528
 H         1.415313         0.498931         1.134011
 H         1.787621        -1.038322         0.151305
 H         1.901672         0.660568        -0.612628
 H        -3.282416        -0.551985        -1.010564
 H        -2.100765         1.651048        -0.836618
 H        -2.841391        -1.219218         1.601920
 H        -2.461621         0.248607         2.043183
 H        -5.306422         0.341623         0.659770
 H        -4.945662        -1.051299         1.665956
 H        -3.997995         1.307188         3.314656
