19
Iteration:  1260
 C         1.401201        -0.158754         0.198334
 C         0.002816         0.083866        -0.080742
 C        -1.221755         0.198826        -0.126180
 C        -2.626388         0.218265        -0.150339
 O        -3.075234         1.542069        -0.544427
 C        -3.284337        -0.231000         1.227416
 C        -4.865859        -0.112437         1.460867
 C        -5.026168         0.199934         2.911609
 O        -5.658041         1.034967         3.507808
 H         1.456519        -1.058663         0.781257
 H         2.085114        -0.336907        -0.676963
 H         1.850616         0.574604         0.869487
 H        -2.839910        -0.601040        -0.876466
 H        -3.397401         1.682204        -1.468989
 H        -3.076397        -1.380194         1.000476
 H        -2.688462         0.329821         2.006601
 H        -5.484876         0.608634         0.954076
 H        -5.358491        -1.177936         1.346161
 H        -4.390323        -0.462515         3.539042
