19
Iteration:  2242
 C         1.339948         0.274648         0.109792
 C        -0.155730         0.140457         0.229557
 C        -1.379100         0.145651         0.027427
 C        -2.874307         0.011715         0.142594
 O        -3.536581         1.156870        -0.234132
 C        -3.276701        -0.691385         1.448292
 C        -4.803477        -0.605300         1.625331
 C        -5.245267         0.703746         2.362114
 O        -4.470191         1.566986         2.730433
 H         1.623312         0.806521        -0.852118
 H         1.791918         0.672170         0.970656
 H         1.603011        -0.819176         0.025481
 H        -3.104868        -0.799156        -0.567844
 H        -3.450543         1.741792         0.536453
 H        -2.832393        -1.669211         1.540648
 H        -2.725588        -0.210905         2.272277
 H        -5.344128        -0.608711         0.640902
 H        -5.347832        -1.522657         2.103978
 H        -6.363766         0.868421         2.210972
