19
Iteration:  4592charge 0 multiplicity 1
 C         1.365303         0.320037         0.240750
 C        -0.105714         0.312248         0.059980
 C        -1.260580        -0.087115         0.229145
 C        -2.749690        -0.020268         0.250575
 O        -3.440341        -0.156862        -0.969178
 C        -3.375870         1.048302         1.181853
 C        -4.945059         1.062553         1.356879
 C        -5.362191         0.245835         2.634354
 O        -4.554755         0.219023         3.548529
 H         1.729232        -0.264358         1.103648
 H         1.818968         0.084286        -0.749216
 H         1.666668         1.370915         0.406389
 H        -3.033487        -0.994604         0.688833
 H        -3.219132         0.469569        -1.667617
 H        -2.765970         0.838046         2.071508
 H        -2.919482         2.003002         0.809167
 H        -5.179031         2.096408         1.623350
 H        -5.679754         0.819370         0.498317
 H        -6.287504        -0.294668         2.678311
