19
Iteration:  3565
 C         1.260665         0.403176        -0.383926
 C        -0.042992         0.105372         0.106786
 C        -1.218377        -0.287381         0.300759
 C        -2.675070        -0.178253         0.233934
 O        -3.157255         0.605803        -0.869931
 C        -3.144690         0.158500         1.633862
 C        -4.675929         0.124398         1.462085
 C        -5.531118         0.655012         2.524102
 O        -5.197492         1.116508         3.608701
 H         1.320867         0.196177        -1.441433
 H         1.438062         1.493370        -0.248459
 H         2.011518        -0.200441         0.061181
 H        -3.010610        -1.262681         0.000347
 H        -2.543076         1.370479        -0.950299
 H        -2.855219        -0.671371         2.278643
 H        -2.687646         1.018170         2.127327
 H        -5.101869         0.668573         0.527578
 H        -4.978430        -1.020784         1.257942
 H        -6.595595         0.834042         2.224159
