19
Iteration:  4888charge 0 multiplicity 1
 C         1.222923         0.256204         0.594747
 C        -0.186858         0.148176         0.271925
 C        -1.381443         0.250463         0.012206
 C        -2.776026         0.093344         0.274540
 O        -3.599595        -0.379732        -0.903855
 C        -3.405883         1.216124         0.981436
 C        -4.919677         0.944163         1.253601
 C        -5.110731         0.331081         2.589762
 O        -4.215321         0.175388         3.420122
 H         1.938957        -0.090057        -0.161284
 H         1.392589         1.376694         0.609986
 H         1.288533         0.115528         1.726548
 H        -2.985999        -0.829909         0.873071
 H        -3.713306         0.336445        -1.593165
 H        -2.950005         1.298975         1.976796
 H        -3.422481         2.151942         0.382736
 H        -5.597981         1.790141         1.078386
 H        -5.138814         0.102890         0.496012
 H        -6.064715        -0.159859         2.780848
