19
Iteration:  3098charge 0 multiplicity 1
 C         1.001701         0.760945        -0.314836
 C        -0.107489         0.001022        -0.019182
 C        -1.264399        -0.340460         0.177801
 C        -2.693530        -0.354988         0.249291
 O        -3.272262         1.080018         0.312946
 C        -3.282331        -0.835227         1.636793
 C        -4.776245        -0.547520         1.748718
 C        -5.272889         0.884432         2.116813
 O        -4.673510         1.849205         2.542805
 H         1.957797         0.660028         0.280290
 H         1.265818         0.592728        -1.412825
 H         0.647158         1.809909        -0.114123
 H        -3.110630        -0.927205        -0.531098
 H        -3.391343         1.138404        -0.651529
 H        -2.872889        -1.859475         1.844586
 H        -2.697797        -0.160122         2.259147
 H        -5.226450        -0.989046         0.854539
 H        -5.236023        -1.014907         2.656168
 H        -6.448288         0.850345         2.157717
