19
Iteration:  2694charge 0 multiplicity 1
 C         1.346122        -0.258610         0.076793
 C         0.034124         0.219203        -0.168153
 C        -1.180928         0.345254        -0.008607
 C        -2.624274         0.095498         0.135319
 O        -3.538414         0.658748        -0.909897
 C        -3.223448         0.478632         1.474019
 C        -4.554451        -0.257215         1.603169
 C        -5.328979         0.272251         2.834509
 O        -5.220812         1.324934         3.440105
 H         2.115871         0.419834         0.621674
 H         1.217517        -1.127252         0.764019
 H         1.855589        -0.484867        -0.879307
 H        -2.744644        -0.965838        -0.231776
 H        -3.186928         1.412162        -1.363848
 H        -2.579913         0.208392         2.401177
 H        -3.214468         1.650253         1.547558
 H        -5.215866         0.111898         0.798245
 H        -4.614827        -1.391068         1.599553
 H        -6.120434        -0.534312         3.062730
