19
Iteration:  1315charge 0 multiplicity 1
 C         1.318475        -0.061913         0.307210
 C        -0.181010        -0.082437         0.085301
 C        -1.306267         0.084736        -0.286218
 C        -2.720538         0.132471        -0.162649
 O        -3.256512         1.510914        -0.373716
 C        -3.171195        -0.309443         1.103579
 C        -4.540990         0.084926         1.425082
 C        -4.884793         0.208942         2.902224
 O        -5.647115         1.033614         3.379125
 H         1.848989        -0.885443         0.775592
 H         1.806911         0.158629        -0.668473
 H         1.551038         0.828811         0.916743
 H        -3.137807        -0.429859        -0.964957
 H        -2.913053         1.899223        -1.174125
 H        -2.853722        -1.470474         1.066808
 H        -2.566856         0.227040         1.918799
 H        -4.856958         1.054314         1.039049
 H        -5.206912        -0.673595         0.936913
 H        -4.409966        -0.329484         3.752854
