19
Iteration:  3568charge 0 multiplicity 1
 C         1.237877         0.412056        -0.368481
 C        -0.070929         0.110246         0.090061
 C        -1.217075        -0.269463         0.300234
 C        -2.663468        -0.226138         0.218499
 O        -3.139856         0.600354        -0.868972
 C        -3.142170         0.183966         1.619680
 C        -4.682604         0.112087         1.484459
 C        -5.527081         0.680427         2.523205
 O        -5.189229         1.093078         3.610041
 H         1.373463         0.204841        -1.417222
 H         1.498439         1.473008        -0.200214
 H         1.959539        -0.229853         0.131406
 H        -3.069019        -1.275461        -0.022285
 H        -2.554996         1.358605        -1.054245
 H        -3.022730        -0.632224         2.299962
 H        -2.684253         1.053076         2.102213
 H        -4.999911         0.719215         0.611637
 H        -4.876855        -0.950334         1.246931
 H        -6.580927         0.896637         2.220840
