19
Iteration:  3813
 C         1.273034         0.181580         0.373391
 C        -0.284899         0.258002         0.385607
 C        -1.471552         0.071751         0.365196
 C        -2.900919        -0.045823         0.333490
 O        -3.162781        -0.239982        -1.226462
 C        -3.676610         1.213822         0.886932
 C        -5.076068         0.918642         1.322458
 C        -5.140876         0.335198         2.755892
 O        -4.102714         0.402373         3.471197
 H         1.681806         0.895186        -0.359373
 H         1.652208         0.327771         1.361399
 H         1.529529        -0.866041         0.132964
 H        -3.303314        -0.965655         0.741565
 H        -3.006490        -1.184004        -1.434850
 H        -3.110987         1.681823         1.782288
 H        -3.607979         1.799687        -0.096190
 H        -5.392852         2.002171         1.388013
 H        -5.773906         0.369157         0.463336
 H        -6.060510        -0.137760         3.201233
