19
Iteration:  4526
 C         1.242411         0.532892        -0.261949
 C        -0.014984        -0.039523         0.399173
 C        -1.265491        -0.189217         0.517528
 C        -2.768598         0.025457         0.464403
 O        -3.327011        -0.148233        -0.893039
 C        -3.308341         1.241317         1.224344
 C        -4.852932         1.194353         1.307096
 C        -5.312053         0.466371         2.547862
 O        -4.745852        -0.147706         3.415211
 H         2.174696         0.714680         0.284898
 H         1.419723        -0.014802        -1.232428
 H         0.903477         1.553309        -0.383483
 H        -3.287182        -0.841607         0.923459
 H        -2.491133        -0.156980        -1.444035
 H        -3.009796         1.170846         2.294224
 H        -3.057893         2.184305         0.678399
 H        -5.457473         2.094870         1.298463
 H        -5.173238         0.553186         0.411260
 H        -6.489113         0.383081         2.621053
