19
Iteration:   170charge 0 multiplicity 1
 C         1.312955         0.039209         0.114952
 C        -0.069571        -0.003671        -0.102836
 C        -1.274523        -0.053315        -0.272480
 C        -2.662751         0.122258        -0.204408
 O        -2.977256         1.485378        -0.529640
 C        -3.132036        -0.218558         1.340789
 C        -4.641093        -0.066984         1.610221
 C        -4.949365         0.727739         2.928535
 O        -6.024313         0.638831         3.473299
 H         1.534112         0.466177         1.119781
 H         1.772849        -1.041477         0.144494
 H         1.892468         0.611987        -0.626995
 H        -3.031465        -0.535006        -0.982370
 H        -2.171220         2.011117        -0.601011
 H        -2.908477        -1.371772         1.367075
 H        -2.716659         0.485848         2.004433
 H        -5.196338         0.360482         0.703413
 H        -5.166151        -1.041817         1.779826
 H        -4.026131         1.273811         3.191188
