19
Iteration:  4917charge 0 multiplicity 1
 C         1.220408         0.278498         0.635798
 C        -0.126395         0.197633         0.012945
 C        -1.355707         0.233059        -0.049770
 C        -2.714263         0.097591         0.352468
 O        -3.457718        -0.441327        -0.866044
 C        -3.446933         1.237033         0.940116
 C        -5.081995         1.040239         1.265714
 C        -5.183255         0.437937         2.732387
 O        -4.281262        -0.012814         3.399655
 H         2.075250        -0.028842        -0.012963
 H         1.339169         1.378864         0.863841
 H         1.144690        -0.220687         1.535697
 H        -2.960460        -0.633477         1.113416
 H        -2.967337        -0.333240        -1.714603
 H        -2.883908         1.517647         1.839618
 H        -3.338809         2.127302         0.214331
 H        -5.635736         2.022941         1.370663
 H        -5.442595         0.366554         0.518590
 H        -6.234479         0.495335         3.221309
