19
Iteration:   675charge 0 multiplicity 1
 C         1.212387        -0.586722         0.415491
 C        -0.097797        -0.182134        -0.048682
 C        -1.250196         0.221646        -0.287572
 C        -2.651321         0.385286        -0.194735
 O        -3.112385         1.604524        -0.861423
 C        -3.188850         0.361737         1.239778
 C        -4.733985         0.426877         1.438857
 C        -5.011100         0.619128         2.915166
 O        -5.577835        -0.155732         3.679604
 H         1.414851        -0.272953         1.482047
 H         1.425851        -1.687596         0.368218
 H         2.029330        -0.050954        -0.183786
 H        -3.028751        -0.404633        -0.836485
 H        -2.862914         2.274870        -0.165273
 H        -2.507641        -0.158967         1.815284
 H        -2.959551         1.454591         1.546118
 H        -4.908775         1.359604         0.890358
 H        -5.304764        -0.434201         0.934707
 H        -4.628622         1.529737         3.483384
