19
Iteration:  4340
 C         1.100355         0.331133        -0.537006
 C        -0.114798         0.322662         0.247865
 C        -1.245330         0.315021         0.658775
 C        -2.642075        -0.099425         0.958630
 O        -3.600665        -0.471601        -0.136298
 C        -3.188027         1.342005         1.223778
 C        -4.703971         1.640850         1.480260
 C        -5.293439         0.255802         1.954289
 O        -4.679443        -0.410282         2.772348
 H         1.894885         0.422427         0.253720
 H         1.390593        -0.735014        -0.887708
 H         1.277436         1.097388        -1.262294
 H        -2.876093        -0.894606         1.736400
 H        -3.297948        -1.374010        -0.359427
 H        -2.617076         1.774034         2.079063
 H        -2.898468         1.919862         0.299942
 H        -4.920875         2.424913         2.334506
 H        -5.272624         1.978934         0.646738
 H        -6.154325        -0.115343         1.327860
