19
Iteration:  3287
 C         1.382129        -0.000395         0.061136
 C        -0.183555         0.071750        -0.174264
 C        -1.396431         0.186069        -0.218023
 C        -2.740911         0.063905         0.141796
 O        -3.524692         1.209807        -0.355007
 C        -3.007929        -0.186278         1.599041
 C        -4.461400        -0.620194         1.948877
 C        -5.343498         0.505350         2.314882
 O        -5.087282         1.502228         2.948676
 H         1.504951        -1.119995         0.123598
 H         1.925280         0.274745        -0.810779
 H         1.742947         0.433316         1.012556
 H        -3.117858        -0.899986        -0.439517
 H        -3.191210         1.942532         0.192415
 H        -2.366989        -0.953658         2.018694
 H        -2.855050         0.695270         2.220561
 H        -5.011340        -1.136515         1.117201
 H        -4.397664        -1.311655         2.913341
 H        -6.439854         0.238014         2.224911
