19
Iteration:  3709
 C         1.279853         0.391657         0.469490
 C        -0.138890         0.193860         0.008915
 C        -1.317488        -0.005685         0.017589
 C        -2.766048        -0.221436         0.169904
 O        -3.511885        -0.069368        -1.038995
 C        -3.315379         0.718345         1.160328
 C        -4.810222         0.639311         1.274421
 C        -5.275830         0.660334         2.723778
 O        -4.543234         0.604307         3.690209
 H         1.873879         0.806129        -0.329410
 H         1.131047         1.123554         1.321736
 H         1.691065        -0.553293         0.807581
 H        -3.050715        -1.172152         0.565990
 H        -2.933191        -0.078965        -1.818600
 H        -2.820017         0.523420         2.068163
 H        -3.013984         1.729207         0.909308
 H        -5.044985         1.698714         0.883434
 H        -5.432933        -0.006151         0.610523
 H        -6.386933         0.573019         2.841729
