19
Iteration:  1300charge 0 multiplicity 1
 C         1.313075        -0.078753         0.269831
 C        -0.104414         0.028517         0.122983
 C        -1.247659         0.054749        -0.191670
 C        -2.731419         0.194520        -0.327085
 O        -3.201050         1.521825        -0.394917
 C        -3.172092        -0.297172         1.138971
 C        -4.678175         0.046715         1.503639
 C        -4.875682         0.207085         2.975204
 O        -5.645174         1.034116         3.339367
 H         1.470892        -1.069265         0.710188
 H         1.817340        -0.087189        -0.750566
 H         1.734805         0.715348         0.883470
 H        -3.230805        -0.422473        -1.124667
 H        -3.284904         1.725957        -1.342598
 H        -3.055929        -1.350437         1.220297
 H        -2.453166        -0.016863         1.868535
 H        -4.951109         0.938315         0.955228
 H        -5.273601        -0.759248         1.198060
 H        -4.303323        -0.648438         3.550608
