19
Iteration:  3672
 C         1.316296         0.386870         0.226261
 C        -0.166601         0.420082         0.278130
 C        -1.298914        -0.061372        -0.034391
 C        -2.794447        -0.330309         0.120752
 O        -3.447472         0.049195        -1.123327
 C        -3.207920         0.484140         1.314156
 C        -4.763043         0.551605         1.360900
 C        -5.344961         0.794544         2.684479
 O        -4.747435         0.686437         3.734833
 H         1.736234         0.633736        -0.809150
 H         1.943112         1.128497         0.866931
 H         1.756053        -0.598854         0.576407
 H        -2.886772        -1.423237         0.364293
 H        -3.003447        -0.472604        -1.821207
 H        -2.798388        -0.050590         2.253345
 H        -2.861673         1.563994         1.235761
 H        -4.900913         1.447852         0.713981
 H        -5.317595        -0.230292         0.933759
 H        -6.440358         1.018229         2.676869
