19
Iteration:  4500charge 0 multiplicity 1
 C         1.256009         0.423255        -0.299233
 C        -0.116809         0.164229         0.142583
 C        -1.262964        -0.046101         0.525872
 C        -2.665229        -0.117614         0.604137
 O        -3.162148        -0.143368        -0.762030
 C        -3.308590         1.178763         1.165960
 C        -4.873510         1.254412         1.435587
 C        -5.473351         0.518977         2.570745
 O        -4.816141        -0.239494         3.274256
 H         1.915864         0.501172         0.569033
 H         1.645685        -0.200912        -1.132175
 H         1.217848         1.497201        -0.552678
 H        -3.069636        -1.014964         1.066551
 H        -2.591725        -0.828599        -1.214433
 H        -2.872904         1.505225         2.132556
 H        -3.105260         1.893514         0.381203
 H        -5.218770         2.286350         1.698109
 H        -5.381544         0.980025         0.423491
 H        -6.549018         0.682507         2.867245
