19
Iteration:  4656
 C         1.389704         0.095591         0.520726
 C        -0.102194         0.341292         0.139624
 C        -1.290645         0.207861        -0.101596
 C        -2.794126         0.126078         0.103263
 O        -3.534303        -0.206949        -1.121716
 C        -3.383061         1.303662         0.953005
 C        -4.833915         0.760247         1.423147
 C        -5.238203         0.351112         2.789305
 O        -4.590634         0.120193         3.799842
 H         1.639555        -0.814228         1.049000
 H         2.018544         0.171387        -0.429338
 H         1.750465         0.949409         1.049981
 H        -2.939954        -0.689332         0.810198
 H        -2.874647        -0.206545        -1.813047
 H        -2.929292         1.799082         1.736530
 H        -3.726077         2.143062         0.393313
 H        -5.587340         1.418739         1.012954
 H        -4.928804        -0.165954         0.769212
 H        -6.392048         0.260675         2.818140
