19
Iteration:  2691
 C         1.368658        -0.247899         0.071725
 C         0.034537         0.201688        -0.139968
 C        -1.193855         0.347742        -0.015494
 C        -2.635042         0.079606         0.105286
 O        -3.559825         0.666539        -0.885265
 C        -3.215769         0.469831         1.444294
 C        -4.541460        -0.254671         1.620022
 C        -5.345850         0.283169         2.808910
 O        -5.205658         1.328004         3.446930
 H         1.930958         0.505297         0.629928
 H         1.236245        -1.026980         0.751242
 H         1.910368        -0.525707        -0.840684
 H        -2.704875        -1.015046        -0.171974
 H        -3.159155         1.456061        -1.318681
 H        -2.610154         0.157430         2.377051
 H        -3.036831         1.584532         1.638435
 H        -5.302809         0.100682         0.789990
 H        -4.524333        -1.454700         1.595902
 H        -6.164568        -0.469497         2.992421
