19
Iteration:  1872charge 0 multiplicity 1
 C         1.154605         0.016968         0.646787
 C        -0.259192         0.025205         0.274122
 C        -1.418921        -0.175813        -0.021402
 C        -2.784308         0.033053        -0.157470
 O        -3.142967         1.005665        -1.287513
 C        -3.339977         0.704081         1.139817
 C        -4.836927         0.221500         1.395544
 C        -5.245946         0.513622         2.761128
 O        -4.613416         0.374664         3.787063
 H         1.767501        -0.427014        -0.217096
 H         1.501326         1.031418         0.750815
 H         1.327702        -0.586353         1.604877
 H        -3.296480        -0.923112        -0.379179
 H        -2.493444         1.696885        -1.435778
 H        -2.873172         0.210385         2.050468
 H        -3.267817         1.816960         0.924109
 H        -5.494711         0.809011         0.706300
 H        -4.942150        -0.823421         1.040975
 H        -6.349952         0.785679         2.671157
