19
Iteration:  1123
 C         1.599221        -0.166692        -0.396563
 C         0.178289        -0.115555        -0.049145
 C        -0.992470         0.136382         0.049242
 C        -2.536287         0.165756         0.064921
 O        -2.977488         1.280247        -0.672422
 C        -3.318272         0.209808         1.421995
 C        -4.848676         0.417624         1.548029
 C        -5.333123         0.125197         2.892097
 O        -6.125237         0.688090         3.622029
 H         2.153967        -0.892131         0.318839
 H         1.735898        -0.513785        -1.404383
 H         2.053220         0.853978        -0.261316
 H        -2.840827        -0.724718        -0.501104
 H        -2.258854         1.907028        -0.569052
 H        -3.131571        -0.831158         1.883340
 H        -2.728817         1.020907         1.993532
 H        -5.134113         1.400911         0.902091
 H        -5.284428        -0.379242         0.949354
 H        -4.942740        -0.839363         3.314188
