19
Iteration:  3243charge 0 multiplicity 1
 C         1.304215         0.115301        -0.246085
 C        -0.074633         0.319970        -0.176321
 C        -1.259715         0.189417         0.108740
 C        -2.724265        -0.096906         0.280689
 O        -3.492167         1.061757        -0.117398
 C        -3.173728        -0.492503         1.722843
 C        -4.643166        -0.613866         1.760249
 C        -5.309642         0.606695         2.280632
 O        -4.983221         1.651433         2.816519
 H         1.474629        -1.001731         0.019686
 H         1.760830         0.275477        -1.215887
 H         1.790593         0.761715         0.543250
 H        -3.051892        -0.937046        -0.466560
 H        -2.955168         1.844537        -0.299521
 H        -2.702404        -1.428672         1.981425
 H        -2.771547         0.277944         2.387419
 H        -5.095228        -0.962213         0.795147
 H        -4.937499        -1.394360         2.605314
 H        -6.345970         0.613932         1.866019
