19
Iteration:  3420charge 0 multiplicity 1
 C         1.481528        -0.131412        -0.126607
 C         0.006403        -0.102903        -0.081899
 C        -1.169803         0.221482        -0.036916
 C        -2.669079         0.127198         0.138932
 O        -3.576739         1.268290        -0.508251
 C        -3.097422         0.009448         1.570093
 C        -4.529363        -0.493352         1.859228
 C        -5.396654         0.276502         2.798820
 O        -5.366210         1.486556         2.906576
 H         1.821107        -0.939286        -0.796423
 H         1.670281         0.775223        -0.621555
 H         2.046195        -0.238365         0.813866
 H        -3.245507        -0.765133        -0.363253
 H        -2.863041         1.828475        -0.861861
 H        -2.268638        -0.542783         2.029355
 H        -2.975165         1.034955         1.925945
 H        -5.099010        -0.433648         0.886419
 H        -4.375659        -1.626548         1.875661
 H        -6.158501        -0.260966         3.444728
