19
Iteration:  2791charge 0 multiplicity 1
 C         1.440956        -0.052593        -0.289822
 C        -0.014108        -0.092383         0.028077
 C        -1.223331        -0.106970         0.171532
 C        -2.735728         0.046043         0.104823
 O        -2.960152         0.671627        -1.179617
 C        -3.345460         0.896268         1.321244
 C        -4.645315        -0.133347         1.756702
 C        -5.245784         0.184667         3.185831
 O        -5.619947         1.294599         3.517971
 H         2.071136         0.599734         0.263215
 H         1.660437        -1.028696        -0.079183
 H         1.482578         0.353250        -1.287749
 H        -3.238178        -0.904963         0.126684
 H        -2.561090         1.520407        -0.956892
 H        -2.805491         1.329306         2.160894
 H        -3.941402         1.604078         0.732729
 H        -5.411037         0.019402         0.890370
 H        -4.374385        -1.283295         1.841307
 H        -5.390659        -0.805875         3.725781
