19
Iteration:  4018
 C         1.266406         0.652372         0.054531
 C        -0.087899         0.221259         0.308187
 C        -1.267638        -0.111913         0.312219
 C        -2.700427        -0.128859         0.517379
 O        -3.533882        -0.377963        -0.669291
 C        -3.239994         1.259476         0.953086
 C        -4.810892         1.226945         1.218268
 C        -5.330661         0.475306         2.528720
 O        -4.625373        -0.132965         3.287950
 H         1.478759         1.761739         0.061964
 H         1.929544         0.198207         0.762237
 H         1.569187         0.256962        -0.976428
 H        -2.980662        -0.943322         1.270394
 H        -3.709677        -1.342606        -0.559751
 H        -2.990311         1.286939         2.027515
 H        -2.667634         2.057281         0.523274
 H        -5.110282         2.308226         1.239245
 H        -5.477595         0.618950         0.505366
 H        -6.435378         0.526339         2.713554
