19
Iteration:   949charge 0 multiplicity 1
 C         1.330876        -0.326116        -0.425867
 C         0.134799         0.060889         0.004307
 C        -1.101429         0.071197         0.066312
 C        -2.557817         0.180797         0.075793
 O        -3.077308         1.306096        -0.541395
 C        -3.012007         0.224859         1.524243
 C        -4.570089         0.535868         1.615284
 C        -5.127088         0.432617         3.000445
 O        -6.318585         0.303066         3.202488
 H         2.037806        -0.746054         0.362405
 H         1.322236        -1.088991        -1.133090
 H         1.951551         0.516344        -0.799851
 H        -3.105298        -0.745859        -0.256070
 H        -2.346859         1.592966        -1.158435
 H        -2.778758        -0.786764         1.856610
 H        -2.448682         1.105795         2.011926
 H        -4.825013         1.647956         1.506912
 H        -5.130041        -0.255551         0.937428
 H        -4.555151         0.607027         3.945742
