19
Iteration:  2262charge 0 multiplicity 1
 C         1.243228         0.208714         0.311798
 C        -0.206422         0.260678         0.037092
 C        -1.430674         0.109034        -0.025792
 C        -2.872603        -0.058541         0.054550
 O        -3.609778         1.257472        -0.139961
 C        -3.264306        -0.694362         1.448017
 C        -4.794982        -0.681589         1.725056
 C        -5.126608         0.704240         2.229313
 O        -4.371258         1.562856         2.664756
 H         1.641012         0.897816        -0.398922
 H         1.375991         0.605375         1.320480
 H         1.668917        -0.800485         0.302260
 H        -3.286939        -0.651528        -0.745912
 H        -3.331224         1.753310         0.634458
 H        -2.836306        -1.687132         1.550701
 H        -2.627745        -0.152517         2.124699
 H        -5.202778        -1.051548         0.787112
 H        -5.065493        -1.452459         2.518428
 H        -6.206867         1.032217         2.302834
