19
Iteration:  3615charge 0 multiplicity 1
 C         1.402145         0.557883        -0.059584
 C         0.053990         0.085352        -0.077375
 C        -1.080716        -0.232511         0.093444
 C        -2.610018        -0.333488         0.142529
 O        -3.249508         0.330049        -0.975926
 C        -3.426265         0.284582         1.458589
 C        -4.921762         0.306162         1.409502
 C        -5.584855         0.933037         2.728108
 O        -5.004918         0.858442         3.786930
 H         1.894415         0.562502        -1.093093
 H         1.552962         1.491722         0.457415
 H         1.933148        -0.342059         0.450115
 H        -2.650890        -1.425304         0.131444
 H        -2.577260         0.388630        -1.676302
 H        -3.039600        -0.421960         2.308163
 H        -3.115878         1.306934         1.786933
 H        -5.236857         0.956809         0.606267
 H        -5.262241        -0.671937         1.254207
 H        -6.424362         1.663410         2.638611
