19
Iteration:  1876
 C         1.140759         0.001966         0.614109
 C        -0.238929         0.010467         0.276254
 C        -1.373511        -0.181816        -0.040960
 C        -2.749787         0.107752        -0.176889
 O        -3.145343         0.988087        -1.296266
 C        -3.332884         0.696505         1.174263
 C        -4.872527         0.200360         1.424379
 C        -5.278140         0.484537         2.762988
 O        -4.643517         0.397300         3.796041
 H         1.720932        -0.440490        -0.181785
 H         1.578239         0.999483         0.874080
 H         1.329460        -0.505525         1.549254
 H        -3.381052        -0.808729        -0.309457
 H        -2.506661         1.708879        -1.521212
 H        -2.683456         0.292102         1.964056
 H        -3.222159         1.724819         0.888857
 H        -5.496055         0.738177         0.749689
 H        -4.917197        -0.799193         1.049477
 H        -6.333368         0.825170         2.702340
