19
Iteration:  3268charge 0 multiplicity 1
 C         1.274133        -0.037393        -0.039491
 C        -0.064750         0.352176        -0.235228
 C        -1.257987         0.133224        -0.170038
 C        -2.776740         0.008681         0.179580
 O        -3.494425         1.115239        -0.227969
 C        -3.025896        -0.313298         1.720769
 C        -4.543129        -0.573358         1.888983
 C        -5.507103         0.565532         2.325180
 O        -5.001880         1.508623         2.877326
 H         1.433185        -1.209333         0.149207
 H         1.932321         0.265508        -0.943901
 H         1.542870         0.650581         0.826875
 H        -3.078862        -0.895179        -0.343347
 H        -2.883020         1.851861        -0.099306
 H        -2.366116        -1.191491         1.962705
 H        -2.680786         0.528011         2.325126
 H        -4.826776        -1.100372         1.013384
 H        -4.739315        -1.265151         2.752146
 H        -6.590414         0.552617         2.090117
