19
Iteration:  4032
 C         1.260263         0.669103        -0.044980
 C        -0.096924         0.241552         0.224601
 C        -1.255814        -0.157219         0.440816
 C        -2.736234        -0.144159         0.535090
 O        -3.420870        -0.439363        -0.749632
 C        -3.293628         1.147345         1.235384
 C        -4.852970         1.275338         1.205253
 C        -5.293268         0.543867         2.467523
 O        -4.647738        -0.100432         3.251848
 H         1.250812         1.775516         0.081108
 H         2.040931         0.266847         0.679711
 H         1.535966         0.477566        -1.106470
 H        -3.038027        -0.897159         1.269653
 H        -3.837095        -1.322951        -0.749674
 H        -2.835031         1.125885         2.266470
 H        -2.934809         2.041463         0.633571
 H        -5.223413         2.325200         1.369678
 H        -5.228867         0.973571         0.257245
 H        -6.401929         0.644533         2.673201
