19
Iteration:   785charge 0 multiplicity 1
 C         1.497757        -0.404846         0.028112
 C        -0.030674        -0.195004        -0.086153
 C        -1.231888        -0.006910         0.011667
 C        -2.718360         0.398109        -0.057123
 O        -2.837157         1.712983        -0.607453
 C        -3.381436         0.176693         1.342579
 C        -4.965548         0.289244         1.353172
 C        -5.229873         0.752997         2.792535
 O        -5.555965        -0.000493         3.687033
 H         1.787761        -0.303059         1.132045
 H         1.790559        -1.386451        -0.286232
 H         2.044604         0.418257        -0.526995
 H        -3.272468        -0.446111        -0.647670
 H        -2.533630         1.684337        -1.539901
 H        -3.134848        -0.821010         1.563601
 H        -2.978724         1.006867         1.986922
 H        -5.289696         0.903422         0.549559
 H        -5.335313        -0.727456         1.074044
 H        -5.083707         1.901574         2.994225
