19
Iteration:   856
 C         1.378175        -0.269195        -0.208871
 C        -0.070263        -0.075808        -0.097589
 C        -1.269583        -0.147963        -0.100189
 C        -2.625641         0.260860         0.085927
 O        -2.800136         1.531087        -0.491872
 C        -3.150998         0.292720         1.549360
 C        -4.649238         0.337739         1.481945
 C        -5.284377         0.765321         2.756471
 O        -5.921971         0.021234         3.484632
 H         1.848824        -0.353554         0.749865
 H         1.573237        -1.275432        -0.728192
 H         1.878903         0.539793        -0.714882
 H        -3.260388        -0.437649        -0.503160
 H        -2.174460         1.517636        -1.223770
 H        -2.867923        -0.742884         1.894364
 H        -2.772918         1.148008         2.079939
 H        -5.032481         1.174987         0.770212
 H        -5.300258        -0.492699         1.267226
 H        -5.300506         1.866775         3.105841
