19
Iteration:  4762charge 0 multiplicity 1
 C         1.212238         0.273917         0.224306
 C        -0.238087         0.142005         0.482145
 C        -1.412777        -0.126077         0.481599
 C        -2.873649        -0.105324         0.217044
 O        -3.147078         0.132767        -1.187301
 C        -3.640988         1.194487         0.653820
 C        -4.986706         0.889009         1.398124
 C        -5.067357         0.218536         2.761879
 O        -4.300633         0.314627         3.693462
 H         1.727210        -0.641397        -0.016250
 H         1.237950         1.043090        -0.536588
 H         1.594493         0.697491         1.127217
 H        -3.425230        -0.973551         0.516225
 H        -2.645181        -0.525423        -1.688997
 H        -3.104957         1.875204         1.387461
 H        -3.891690         1.726370        -0.252877
 H        -5.742633         1.708366         1.373065
 H        -5.524485         0.284700         0.693891
 H        -5.949642        -0.474505         2.858989
