19
Iteration:  2670
 C         1.428005        -0.094830         0.144628
 C        -0.061589         0.055576        -0.011211
 C        -1.237590         0.310015        -0.177617
 C        -2.710372         0.038828         0.032719
 O        -3.572482         0.718732        -0.864514
 C        -3.090957         0.295386         1.483039
 C        -4.545199        -0.161174         1.667720
 C        -5.477502         0.365198         2.738677
 O        -5.093438         1.289336         3.451712
 H         2.059578         0.758416         0.434392
 H         1.721602        -0.880610         0.779889
 H         1.727583        -0.275052        -0.909938
 H        -2.868853        -1.019602        -0.332577
 H        -3.227173         1.595883        -1.116222
 H        -2.262932        -0.079573         2.217183
 H        -3.036382         1.453882         1.645265
 H        -5.019344        -0.177147         0.628738
 H        -4.631189        -1.249064         2.097348
 H        -6.485346        -0.190071         2.794674
