19
Iteration:  3945
 C         1.257125         0.231073         0.476369
 C        -0.145757         0.337438         0.097866
 C        -1.350404         0.299167         0.051703
 C        -2.776051         0.037366         0.455608
 O        -3.397547        -0.804192        -0.680481
 C        -3.581796         1.471429         0.916410
 C        -4.976767         1.248545         1.380783
 C        -5.190647         0.441620         2.580374
 O        -4.264093        -0.085699         3.179714
 H         1.891760         1.107361         0.545322
 H         1.164824        -0.116897         1.532284
 H         1.786788        -0.501904        -0.115274
 H        -2.894883        -0.653921         1.251867
 H        -3.309426        -0.164888        -1.433066
 H        -2.851356         2.069516         1.514870
 H        -3.726596         2.266196         0.128029
 H        -5.382731         2.187144         1.828744
 H        -5.673962         0.877129         0.655722
 H        -6.228783         0.049399         2.759460
