19
Iteration:  3507
 C         1.468795         0.214709        -0.504497
 C         0.083794         0.082280        -0.240189
 C        -1.031997        -0.041887         0.330596
 C        -2.587045        -0.103925         0.294369
 O        -3.092281         0.837912        -0.690951
 C        -3.380501        -0.031545         1.722232
 C        -4.896077        -0.166174         1.506134
 C        -5.644400         0.478473         2.683212
 O        -5.293840         1.424342         3.388947
 H         1.789295        -0.270350        -1.477092
 H         1.846028         1.226844        -0.448410
 H         1.955625        -0.284651         0.396282
 H        -2.651328        -1.067364        -0.233310
 H        -2.845998         1.670139        -0.241017
 H        -2.963462        -0.760092         2.508837
 H        -3.112267         1.002690         1.988856
 H        -5.287615         0.359291         0.563189
 H        -5.287100        -1.270074         1.356780
 H        -6.424784        -0.210974         3.091851
