19
Iteration:  2794
 C         1.425704        -0.025375        -0.267169
 C        -0.021149        -0.090626        -0.012673
 C        -1.251324        -0.129367         0.184368
 C        -2.741871         0.041640         0.111190
 O        -2.946489         0.677128        -1.188434
 C        -3.334208         0.898968         1.330196
 C        -4.642328        -0.143805         1.753130
 C        -5.255156         0.190961         3.185958
 O        -5.621781         1.295388         3.520876
 H         2.108554         0.617112         0.297206
 H         1.735956        -1.054871        -0.178586
 H         1.518837         0.284448        -1.286859
 H        -3.203869        -0.926304         0.039749
 H        -2.428547         1.471124        -0.893402
 H        -2.766162         1.305677         2.174065
 H        -3.891307         1.582684         0.718613
 H        -5.380187        -0.040844         0.915393
 H        -4.382145        -1.225264         1.841996
 H        -5.392560        -0.718727         3.804012
