19
Iteration:  2235
 C         1.301179         0.251483         0.050819
 C        -0.137456         0.141386         0.245251
 C        -1.336784         0.133982         0.093805
 C        -2.771783        -0.021638         0.145171
 O        -3.544477         1.152711        -0.252884
 C        -3.284472        -0.664192         1.461529
 C        -4.853955        -0.529207         1.619826
 C        -5.251790         0.649119         2.348269
 O        -4.521451         1.557626         2.752802
 H         1.382899         0.833987        -0.899963
 H         1.832896         0.737688         0.903128
 H         1.743938        -0.761290        -0.033300
 H        -3.091304        -0.729538        -0.684201
 H        -3.426625         1.789422         0.456343
 H        -2.955571        -1.744727         1.437977
 H        -2.660194        -0.169094         2.250075
 H        -5.166206        -0.584993         0.566986
 H        -5.267474        -1.368010         2.125148
 H        -6.314110         0.891881         2.468656
