19
Iteration:  1257
 C         1.422453        -0.164206         0.193518
 C        -0.018495         0.068084        -0.096741
 C        -1.204699         0.208320        -0.107006
 C        -2.631359         0.189260        -0.138689
 O        -3.084136         1.572764        -0.545823
 C        -3.292059        -0.204024         1.213142
 C        -4.859587        -0.111204         1.472040
 C        -5.028420         0.176792         2.896655
 O        -5.665451         1.036534         3.500230
 H         1.462697        -1.077283         0.770764
 H         2.131713        -0.342536        -0.692941
 H         1.806499         0.633665         0.829853
 H        -2.751443        -0.646412        -0.756919
 H        -3.360166         1.629844        -1.495457
 H        -3.120917        -1.367432         1.216642
 H        -2.653292         0.275847         1.950859
 H        -5.509788         0.569052         0.983833
 H        -5.314363        -1.023144         1.483478
 H        -4.374798        -0.560563         3.422878
