19
Iteration:  2434
 C         1.210531         0.587316         0.288360
 C        -0.236465         0.288368         0.333678
 C        -1.400695         0.008619         0.074069
 C        -2.850135        -0.321498        -0.000579
 O        -3.678025         0.911750        -0.494236
 C        -3.464224        -0.797501         1.293865
 C        -4.926219        -0.327982         1.510338
 C        -4.927624         0.995323         2.307982
 O        -4.145900         1.316405         3.178755
 H         1.505919         1.512048        -0.144555
 H         1.633262         0.621201         1.305810
 H         1.480121        -0.169521        -0.400277
 H        -2.991621        -0.995508        -0.883709
 H        -2.998045         1.635575        -0.579064
 H        -3.510997        -1.901675         1.362973
 H        -2.858811        -0.450518         2.187997
 H        -5.470633         0.023246         0.569904
 H        -5.654029        -1.055869         1.813394
 H        -5.802872         1.709235         2.298469
