19
Iteration:  1015charge 0 multiplicity 1
 C         1.611757        -0.145949        -0.347126
 C         0.076764        -0.345727        -0.419999
 C        -1.004399         0.030387        -0.086509
 C        -2.628967         0.155660         0.160545
 O        -3.096387         1.382022        -0.491896
 C        -2.977860         0.308792         1.627456
 C        -4.595576         0.556515         1.762815
 C        -5.274972         0.252389         3.031345
 O        -6.449501         0.479974         3.215909
 H         1.971554        -0.442479         0.689562
 H         2.240741        -0.511879        -1.101598
 H         1.771105         0.950282        -0.421785
 H        -3.015240        -0.836097        -0.423104
 H        -2.640357         1.261898        -1.319565
 H        -2.701357        -0.426837         2.374363
 H        -2.434871         1.203961         2.085960
 H        -4.496720         1.578212         1.309319
 H        -4.923177        -0.214170         0.932482
 H        -4.573812        -0.343757         3.721996
