19
Iteration:  2446charge 0 multiplicity 1
 C         1.236189         0.623666         0.199387
 C        -0.247525         0.270950         0.370105
 C        -1.398196         0.002850         0.102801
 C        -2.851892        -0.252391         0.030694
 O        -3.566271         0.896227        -0.538334
 C        -3.566071        -0.880516         1.360378
 C        -4.947799        -0.210589         1.423339
 C        -5.024443         0.969645         2.413013
 O        -4.129737         1.294911         3.186353
 H         1.218496         1.573550        -0.237636
 H         1.913968         0.509241         1.074816
 H         1.802408        -0.048233        -0.396631
 H        -3.029452        -1.109978        -0.695895
 H        -2.953442         1.577572        -0.841702
 H        -3.433753        -1.974916         1.220220
 H        -2.931040        -0.539802         2.233639
 H        -5.355014        -0.196736         0.383836
 H        -5.478419        -0.839415         2.097262
 H        -6.010261         1.480513         2.176082
