19
Iteration:  2612charge 0 multiplicity 1
 C         1.272491         0.408661         0.122425
 C        -0.124315         0.090121        -0.072721
 C        -1.283623        -0.214824        -0.038800
 C        -2.747886        -0.212472        -0.032570
 O        -3.270745         0.905918        -0.828049
 C        -3.251132        -0.100742         1.422305
 C        -4.738979        -0.230121         1.684485
 C        -5.439467         0.741716         2.590098
 O        -4.829322         1.256479         3.532292
 H         1.233135         1.441366         0.309515
 H         1.643721        -0.274430         0.887112
 H         1.794262         0.106449        -0.750820
 H        -3.023650        -1.136671        -0.574716
 H        -2.829754         1.694792        -0.433052
 H        -2.708239        -0.824370         2.095390
 H        -2.911208         0.951981         1.806328
 H        -5.369334        -0.576811         0.758580
 H        -4.984384        -1.134447         2.432844
 H        -6.488348         1.131994         2.265434
