19
Iteration:  3876
 C         1.206984         0.091625         0.372480
 C        -0.253086         0.213298         0.506391
 C        -1.427913         0.195178         0.453866
 C        -2.845454         0.184076         0.411116
 O        -3.396799        -0.411403        -0.763338
 C        -3.774819         1.499261         0.581459
 C        -5.052716         0.937355         1.244554
 C        -4.981932         0.415424         2.666050
 O        -3.953118         0.021188         3.190488
 H         1.750915         0.948313        -0.126840
 H         1.672607         0.038253         1.314793
 H         1.485949        -0.806304        -0.275834
 H        -3.069889        -0.431100         1.313097
 H        -2.861442        -0.310410        -1.570968
 H        -3.488477         2.339819         1.244286
 H        -3.982485         2.123863        -0.250175
 H        -5.921879         1.545685         0.942160
 H        -5.421251         0.039391         0.885230
 H        -5.991415         0.020647         3.038006
