19
Iteration:  2632
 C         1.363949         0.249423         0.138889
 C        -0.097555         0.054473         0.006669
 C        -1.334041        -0.096174        -0.068090
 C        -2.813502        -0.097552        -0.039711
 O        -3.404816         0.873203        -0.898708
 C        -3.108090         0.068699         1.453465
 C        -4.612914        -0.299918         1.729487
 C        -5.392611         0.681868         2.553458
 O        -4.972818         1.257364         3.553396
 H         1.646008         1.282400         0.377659
 H         1.833564        -0.512917         0.857720
 H         1.823215        -0.014374        -0.820421
 H        -3.215118        -1.045682        -0.372403
 H        -3.311978         1.741434        -0.508756
 H        -2.559891        -0.604429         2.027566
 H        -2.867505         1.110223         1.524856
 H        -5.186146        -0.351975         0.766399
 H        -4.670290        -1.340510         2.098093
 H        -6.520819         0.685757         2.453504
