19
Iteration:   233
 C         1.545911        -0.209717        -0.058838
 C         0.042916        -0.049996         0.016565
 C        -1.138139         0.324684        -0.166039
 C        -2.610897         0.166293        -0.097853
 O        -3.278279         1.342063        -0.512466
 C        -3.162344        -0.094390         1.326161
 C        -4.678480        -0.036901         1.521238
 C        -4.971509         0.624010         2.897302
 O        -6.062457         0.658049         3.420197
 H         2.002129         0.240385         0.832468
 H         1.819218        -1.198276        -0.121286
 H         1.918369         0.250630        -0.965740
 H        -3.038090        -0.584297        -0.790847
 H        -2.866562         2.064154         0.010934
 H        -2.771192        -0.968740         1.834496
 H        -2.539426         0.659078         1.953084
 H        -5.079505         0.521422         0.744490
 H        -5.197127        -1.064064         1.508459
 H        -4.169985         1.156118         3.380903
