19
Iteration:  4261charge 0 multiplicity 1
 C         1.310745         0.362566        -0.572442
 C        -0.112529         0.159246        -0.156482
 C        -1.130929         0.221338         0.511778
 C        -2.444124         0.000912         1.058189
 O        -3.444045        -0.388560        -0.071489
 C        -3.140968         1.449343         1.400794
 C        -4.760037         1.420568         1.329829
 C        -5.464019         0.223547         2.030843
 O        -5.132222        -0.375093         3.031499
 H         1.823408         0.817783         0.283622
 H         1.904270        -0.510313        -0.998856
 H         1.445538         1.153780        -1.358993
 H        -2.652956        -0.738482         1.913957
 H        -2.829272        -0.779411        -0.744753
 H        -2.844980         1.965063         2.328916
 H        -2.911348         2.149228         0.581604
 H        -5.182805         2.312803         1.873271
 H        -5.184706         1.480655         0.260871
 H        -6.456725        -0.005590         1.463562
