19
Iteration:   619charge 0 multiplicity 1
 C         1.189332        -0.465701         0.295546
 C        -0.217266        -0.195260         0.075996
 C        -1.372055         0.144021        -0.137937
 C        -2.793575         0.366358        -0.304112
 O        -2.858746         1.648694        -1.012093
 C        -3.117589         0.502964         1.309551
 C        -4.642893         0.449765         1.596214
 C        -4.963372         0.543114         3.056225
 O        -5.731807        -0.234960         3.619746
 H         1.529354        -0.109005         1.273593
 H         1.443430        -1.608433         0.242113
 H         1.819436         0.027355        -0.491284
 H        -3.068175        -0.482376        -0.928953
 H        -2.073369         1.677257        -1.556041
 H        -2.574861        -0.283912         1.750436
 H        -2.820331         1.534923         1.706991
 H        -5.202805         1.258611         1.096870
 H        -5.127854        -0.468738         1.144275
 H        -4.495680         1.435346         3.514858
