19
Iteration:  2850charge 0 multiplicity 1
 C         1.339552         0.128180        -0.149608
 C        -0.048264        -0.134137         0.060896
 C        -1.242390        -0.249204        -0.032521
 C        -2.750446        -0.017592        -0.024618
 O        -3.020804         0.949792        -1.027306
 C        -3.322004         0.529130         1.381501
 C        -4.572994        -0.270884         1.886764
 C        -5.301714         0.280640         3.162907
 O        -5.475470         1.453793         3.325918
 H         1.617085         0.673629         0.751936
 H         1.975985        -0.693683        -0.217736
 H         1.575191         0.646890        -1.044103
 H        -3.212932        -0.963046        -0.273886
 H        -2.890520         0.406354        -1.835335
 H        -2.526910         0.627109         2.140264
 H        -3.653958         1.556241         1.227284
 H        -5.293439        -0.404565         1.017102
 H        -4.298253        -1.306509         2.181684
 H        -5.587912        -0.414685         4.018157
