19
Iteration:  1301charge 0 multiplicity 1
 C         1.307327        -0.078367         0.274451
 C        -0.103755         0.022309         0.122834
 C        -1.251766         0.054110        -0.195038
 C        -2.736376         0.207231        -0.324827
 O        -3.202046         1.512106        -0.388421
 C        -3.169320        -0.292846         1.135674
 C        -4.665607         0.047648         1.490665
 C        -4.875447         0.203889         2.979431
 O        -5.646341         1.036003         3.338062
 H         1.496083        -1.050638         0.704091
 H         1.808013        -0.074655        -0.764275
 H         1.716667         0.723271         0.879756
 H        -3.207999        -0.430124        -1.079572
 H        -3.265560         1.718401        -1.352163
 H        -3.108100        -1.386894         1.225426
 H        -2.425622         0.008538         1.851762
 H        -4.950101         0.928233         0.973308
 H        -5.281081        -0.740346         1.212425
 H        -4.294699        -0.644806         3.538856
