19
Iteration:  1761charge 0 multiplicity 1
 C         1.105477         0.150326         0.769823
 C        -0.235027         0.193430         0.274421
 C        -1.293255        -0.076914        -0.214221
 C        -2.829105        -0.102209        -0.271608
 O        -3.330814         0.841650        -1.216714
 C        -3.276982         0.155678         1.234123
 C        -4.676328         0.712269         1.402776
 C        -5.256732         0.633371         2.739054
 O        -4.640666         0.279872         3.712275
 H         1.622164        -0.577997         0.135989
 H         1.615696         1.094463         0.818688
 H         1.125144        -0.098012         1.836479
 H        -3.199718        -0.909594        -0.847324
 H        -2.894640         1.736709        -1.199237
 H        -3.370619        -0.850426         1.707363
 H        -2.391951         0.522782         1.812825
 H        -4.824019         1.696424         0.981269
 H        -5.360084         0.146270         0.809558
 H        -6.230904         1.037402         2.965477
