19
Iteration:  4119charge 0 multiplicity 1
 C         1.186739         0.703851        -0.509057
 C         0.104337         0.143398         0.257724
 C        -1.139274         0.016300         0.365638
 C        -2.518093        -0.197200         0.736959
 O        -3.287233        -0.354429        -0.491178
 C        -3.133762         1.113761         1.281582
 C        -4.665975         1.233711         1.325641
 C        -5.457373         0.578628         2.356324
 O        -5.370639        -0.199589         3.331225
 H         1.576365         1.697223        -0.247177
 H         2.000547        -0.064374        -0.591077
 H         0.895811         0.690714        -1.579152
 H        -2.540809        -0.997972         1.516294
 H        -3.022339        -1.209211        -0.881356
 H        -2.669005         1.222528         2.283056
 H        -2.699364         1.989204         0.754911
 H        -4.936076         2.324874         1.311395
 H        -5.086800         0.804120         0.388037
 H        -6.524124         0.981073         2.022660
