19
Iteration:  2441charge 0 multiplicity 1
 C         1.250795         0.620920         0.252816
 C        -0.235637         0.275650         0.365362
 C        -1.418113         0.000974         0.071567
 C        -2.848405        -0.300046         0.041990
 O        -3.615702         0.910938        -0.527004
 C        -3.530787        -0.863811         1.347709
 C        -4.944129        -0.233757         1.441337
 C        -4.990152         0.973176         2.368613
 O        -4.126312         1.311151         3.194469
 H         1.313247         1.633252        -0.297199
 H         1.806347         0.525005         1.186497
 H         1.609393        -0.201329        -0.487022
 H        -3.007850        -0.991630        -0.779205
 H        -3.036438         1.650241        -0.774154
 H        -3.414804        -1.933713         1.211388
 H        -2.883941        -0.452497         2.095458
 H        -5.360406        -0.219576         0.437152
 H        -5.625863        -1.037614         2.036568
 H        -5.918628         1.570229         2.198841
