19
Iteration:  4859
 C         1.278547         0.263307         0.490724
 C        -0.212387         0.380449         0.465806
 C        -1.367353        -0.015726         0.202960
 C        -2.864573        -0.039836         0.254589
 O        -3.621142        -0.234720        -1.047686
 C        -3.450342         1.215709         0.827393
 C        -4.866001         0.912136         1.300256
 C        -5.006853         0.185388         2.572782
 O        -4.253258         0.287391         3.507680
 H         1.764451        -0.471776        -0.164978
 H         1.637059         1.246090         0.329167
 H         1.621923         0.094656         1.559332
 H        -3.175924        -0.996309         0.741484
 H        -3.612290         0.626055        -1.480950
 H        -2.928256         1.628215         1.731407
 H        -3.589126         2.039815         0.156321
 H        -5.472164         1.813285         1.443261
 H        -5.384746         0.496528         0.439964
 H        -5.988970        -0.434301         2.684079
