19
Iteration:  1490
 C         1.542025        -0.277017        -0.289866
 C         0.151744         0.114690        -0.103446
 C        -1.073014         0.172918         0.112959
 C        -2.532047         0.226003         0.210109
 O        -3.079198         1.218649        -0.711661
 C        -3.213985         0.446482         1.520997
 C        -4.768138         0.265562         1.466175
 C        -5.536768        -0.041336         2.729721
 O        -5.783133         0.754013         3.588041
 H         1.637736        -1.413863        -0.171932
 H         2.188387         0.051354        -1.146855
 H         2.037466         0.098741         0.674254
 H        -2.782580        -0.897628        -0.037829
 H        -3.270720         0.922985        -1.626126
 H        -2.867067        -0.533388         2.066977
 H        -2.669048         1.255888         2.090932
 H        -5.221043         1.232893         1.142600
 H        -4.932202        -0.494497         0.647967
 H        -6.183687        -0.894794         2.764713
