19
Iteration:   506
 C         1.418102        -0.548097        -0.188971
 C         0.064481        -0.033596        -0.007678
 C        -1.120017         0.106000         0.034136
 C        -2.582103         0.296494         0.077927
 O        -3.202719         1.339893        -0.801366
 C        -3.058431         0.595316         1.555533
 C        -4.616519         0.750224         1.579161
 C        -5.323051         0.687498         2.931351
 O        -5.925076        -0.303075         3.360704
 H         2.164610        -0.177851         0.591757
 H         1.432622        -1.681790        -0.247166
 H         1.784814        -0.106762        -1.146740
 H        -3.031612        -0.682998        -0.141346
 H        -2.465791         1.667499        -1.330961
 H        -2.932386        -0.433489         2.087825
 H        -2.223022         1.319694         1.785547
 H        -4.798302         1.712650         1.066928
 H        -5.047191        -0.165759         1.066953
 H        -5.266594         1.452479         3.714835
