19
Iteration:   920
 C         1.547621        -0.332261        -0.407031
 C         0.176662        -0.201454        -0.099480
 C        -0.993983         0.188475         0.088723
 C        -2.600718         0.232756         0.091852
 O        -3.115967         1.437420        -0.653295
 C        -3.174653         0.143838         1.589323
 C        -4.684650         0.548385         1.551026
 C        -5.218172         0.599140         2.960989
 O        -6.271382         0.168238         3.361042
 H         2.134800        -0.571489         0.500341
 H         1.746461        -1.161838        -1.205835
 H         2.006191         0.558673        -0.857785
 H        -3.082453        -0.781232        -0.316629
 H        -2.281208         1.601159        -1.073814
 H        -2.938149        -0.756323         2.246992
 H        -2.678488         0.907151         2.286545
 H        -4.841843         1.490940         1.130710
 H        -5.067171        -0.379391         1.101819
 H        -4.474114         1.009486         3.734923
