19
Iteration:  3242
 C         1.308774         0.116375        -0.254265
 C        -0.080057         0.310336        -0.166643
 C        -1.257622         0.192804         0.116032
 C        -2.725022        -0.089295         0.280704
 O        -3.494278         1.058238        -0.113397
 C        -3.175323        -0.501355         1.717465
 C        -4.640697        -0.612248         1.761358
 C        -5.308479         0.610221         2.275603
 O        -4.980750         1.652284         2.814013
 H         1.498824        -0.956247         0.012995
 H         1.720918         0.304767        -1.228268
 H         1.766751         0.775091         0.517809
 H        -3.018473        -0.972308        -0.472190
 H        -2.922192         1.817620        -0.283580
 H        -2.709035        -1.432040         1.979284
 H        -2.800846         0.273032         2.414109
 H        -5.101388        -0.948778         0.761937
 H        -4.943102        -1.388592         2.617744
 H        -6.360723         0.634507         1.878583
