19
Iteration:  1958
 C         1.452823        -0.321022         0.235364
 C         0.010805         0.137925         0.133781
 C        -1.196144         0.204525        -0.032738
 C        -2.622941         0.231571        -0.002514
 O        -3.235819         0.881578        -1.108572
 C        -3.454064         0.608911         1.367989
 C        -4.812364         0.161443         1.493798
 C        -5.503834         0.179024         2.746421
 O        -5.060390         0.816432         3.656406
 H         1.904103        -0.765759        -0.723454
 H         2.172293         0.452969         0.532462
 H         1.433499        -1.240489         0.887413
 H        -2.965590        -0.814311        -0.169995
 H        -2.923570         1.814177        -1.145021
 H        -2.759105         0.084695         2.093765
 H        -3.086653         1.604714         1.683895
 H        -5.490056         0.596202         0.675580
 H        -4.744672        -0.961323         1.309358
 H        -6.301196        -0.599666         2.955214
