19
Iteration:  2633charge 0 multiplicity 1
 C         1.373100         0.244778         0.143671
 C        -0.098138         0.052529         0.009654
 C        -1.330940        -0.090671        -0.076513
 C        -2.818531        -0.081928        -0.033714
 O        -3.408494         0.865780        -0.897814
 C        -3.109155         0.072534         1.447547
 C        -4.604666        -0.300162         1.726190
 C        -5.389377         0.670735         2.562111
 O        -4.978367         1.261674         3.553445
 H         1.626057         1.262183         0.370939
 H         1.829727        -0.524975         0.824199
 H         1.784575        -0.043838        -0.816610
 H        -3.202864        -1.047196        -0.373318
 H        -3.329385         1.746776        -0.528383
 H        -2.532293        -0.586673         2.052953
 H        -2.846201         1.141391         1.546201
 H        -5.192822        -0.344967         0.737571
 H        -4.683902        -1.376241         2.098864
 H        -6.538641         0.689524         2.419864
