19
Iteration:  2198
 C         1.347226         0.258672        -0.233301
 C        -0.013599         0.179889         0.168366
 C        -1.211598         0.077842         0.376658
 C        -2.657480        -0.118642         0.188752
 O        -3.268657         1.097730        -0.332273
 C        -3.426765        -0.601322         1.474073
 C        -4.964747        -0.532425         1.527718
 C        -5.387020         0.640969         2.452543
 O        -4.783540         1.616660         2.939411
 H         1.375135         0.706678        -1.283620
 H         1.933724         0.960485         0.323887
 H         1.931847        -0.696186        -0.381892
 H        -2.774221        -0.769780        -0.719723
 H        -3.101129         1.932102         0.115052
 H        -3.147290        -1.662447         1.613888
 H        -3.065908        -0.113005         2.398264
 H        -5.422797         0.034381         0.697240
 H        -5.646811        -1.447784         1.694851
 H        -6.473445         0.553264         2.548498
