19
Iteration:  1865charge 0 multiplicity 1
 C         1.167688         0.033045         0.672515
 C        -0.262493         0.028438         0.279905
 C        -1.435588        -0.154016         0.007866
 C        -2.875757        -0.018450        -0.154369
 O        -3.147064         1.000028        -1.266428
 C        -3.381680         0.662916         1.094042
 C        -4.763026         0.289594         1.296225
 C        -5.243068         0.534585         2.764869
 O        -4.567409         0.347481         3.772682
 H         1.775554        -0.406067        -0.111029
 H         1.462748         1.092991         0.718449
 H         1.328668        -0.561412         1.562075
 H        -3.294498        -0.978938        -0.530726
 H        -2.362467         1.561753        -1.178151
 H        -2.910736         0.381222         2.046588
 H        -3.283342         1.734754         1.190767
 H        -5.481883         0.804508         0.692201
 H        -4.960936        -0.776186         1.204209
 H        -6.305795         0.811979         2.939008
