19
Iteration:  4255
 C         1.310024         0.369648        -0.550671
 C        -0.051393         0.221182        -0.146906
 C        -1.123711         0.179655         0.458295
 C        -2.493887         0.056233         1.018782
 O        -3.439081        -0.406792        -0.050793
 C        -3.161884         1.422492         1.416401
 C        -4.741261         1.378516         1.332744
 C        -5.534983         0.224492         2.031874
 O        -5.129567        -0.335234         3.024042
 H         1.971370         0.711957         0.262661
 H         1.686881        -0.560799        -0.986378
 H         1.340819         0.977867        -1.457944
 H        -2.434141        -0.684729         1.791450
 H        -2.711660        -0.689436        -0.654989
 H        -2.735285         1.724842         2.393464
 H        -2.804761         2.186147         0.694174
 H        -5.166300         2.236702         1.909837
 H        -5.004279         1.512852         0.323683
 H        -6.494996        -0.088341         1.617456
