19
Iteration:  4609charge 0 multiplicity 1
 C         1.353929         0.309995         0.294648
 C        -0.107257         0.174513         0.165529
 C        -1.309501         0.225218         0.006630
 C        -2.788213        -0.088475         0.242003
 O        -3.456586        -0.202299        -1.063864
 C        -3.364535         1.076291         1.127422
 C        -4.871596         0.992627         1.444441
 C        -5.289380         0.275861         2.644148
 O        -4.605026         0.206273         3.654994
 H         1.548422        -0.438652         1.069660
 H         1.915151         0.047257        -0.634259
 H         1.717349         1.289163         0.599135
 H        -2.790672        -1.006934         0.859010
 H        -2.891844         0.316358        -1.667340
 H        -2.877546         1.217262         2.106328
 H        -3.128326         2.045194         0.663685
 H        -5.296341         2.010778         1.569485
 H        -5.317056         0.700745         0.499269
 H        -6.374973        -0.135750         2.552893
