19
Iteration:  2362
 C         0.957351         0.373580         0.714191
 C        -0.356164         0.201966         0.131706
 C        -1.507234         0.029552        -0.258906
 C        -2.971429        -0.153118        -0.157688
 O        -3.704724         1.187353        -0.280092
 C        -3.267418        -0.797514         1.211374
 C        -4.620635        -0.645141         1.833844
 C        -4.833676         0.846986         2.170820
 O        -4.166617         1.565701         2.905004
 H         1.356665         1.359212         0.366843
 H         0.749744         0.565799         1.772121
 H         1.653082        -0.482613         0.417023
 H        -3.442463        -0.713828        -0.978911
 H        -3.063962         1.843267         0.075159
 H        -2.752169        -1.739016         0.974605
 H        -2.570389        -0.379792         1.927981
 H        -5.467031        -1.088109         1.304807
 H        -4.611688        -1.263542         2.833804
 H        -5.714724         1.362560         1.718516
