19
Iteration:  2955
 C         1.376160        -0.048101         0.140964
 C        -0.113248         0.346650        -0.053985
 C        -1.310017         0.329822        -0.138584
 C        -2.761139        -0.093672        -0.011757
 O        -3.717688         0.627784        -0.635118
 C        -3.017690        -0.068616         1.482781
 C        -4.468299        -0.427790         1.856763
 C        -5.298803         0.595414         2.544939
 O        -5.023597         1.620877         3.160014
 H         1.655626        -0.192014         1.245665
 H         1.509981        -1.132665        -0.278733
 H         2.309592         0.547534        -0.142713
 H        -2.747735        -1.061191        -0.535622
 H        -3.566786         1.598481        -0.484732
 H        -2.302115        -0.841746         1.812402
 H        -2.904496         0.878614         2.013266
 H        -5.118384        -0.730060         1.138369
 H        -4.471740        -1.091563         2.641847
 H        -6.407562         0.231427         2.495188
