19
Iteration:   193charge 0 multiplicity 1
 C         1.494543        -0.036381         0.064723
 C        -0.030941         0.009412        -0.063805
 C        -1.247693        -0.042742        -0.135933
 C        -2.831643         0.186560        -0.108703
 O        -3.063923         1.524811        -0.669829
 C        -3.156767        -0.186083         1.306399
 C        -4.576462        -0.142768         1.652161
 C        -4.924553         0.668602         2.929445
 O        -6.028736         0.665659         3.425163
 H         1.782042         0.384404         1.034448
 H         1.860880        -1.181231         0.083095
 H         2.049612         0.487936        -0.729983
 H        -3.253614        -0.459384        -0.877225
 H        -2.788831         2.134661         0.055499
 H        -2.842590        -1.345854         1.329052
 H        -2.720015         0.427871         2.035059
 H        -5.141220         0.557128         0.915250
 H        -5.155745        -1.050637         1.483148
 H        -4.064057         1.286067         3.025930
