19
Iteration:  4894
 C         1.223731         0.273515         0.610641
 C        -0.200712         0.120706         0.215691
 C        -1.379353         0.275535        -0.026349
 C        -2.733177         0.050215         0.255041
 O        -3.571148        -0.395157        -0.892408
 C        -3.513275         1.253824         1.027983
 C        -4.864116         0.953133         1.287534
 C        -5.151844         0.333400         2.620224
 O        -4.218350         0.163799         3.370412
 H         2.075849        -0.098079         0.006613
 H         1.264482         1.366151         0.627776
 H         1.291071        -0.028809         1.622524
 H        -2.814763        -0.747851         0.994331
 H        -3.517537         0.239092        -1.606799
 H        -2.964599         1.403617         1.971363
 H        -3.299135         2.161973         0.433244
 H        -5.517288         1.838493         1.094657
 H        -5.197653         0.148386         0.670898
 H        -6.249635        -0.008938         2.813166
