19
Iteration:  1853
 C         1.148219         0.097151         0.673186
 C        -0.234443        -0.020644         0.312080
 C        -1.431510        -0.109267         0.039646
 C        -2.925109         0.032291        -0.240608
 O        -3.122269         0.927740        -1.206052
 C        -3.375422         0.560624         1.112251
 C        -4.925057         0.413347         1.297386
 C        -5.248152         0.563744         2.805105
 O        -4.455748         0.298777         3.691652
 H         1.834731        -0.413394        -0.031533
 H         1.547345         1.063992         0.941675
 H         1.278057        -0.351202         1.679832
 H        -3.580596        -0.864640        -0.379295
 H        -2.378109         1.562411        -1.132605
 H        -2.688035         0.044733         1.819197
 H        -3.111093         1.592922         0.860986
 H        -5.448615         0.795347         0.432060
 H        -5.013372        -0.668003         1.218288
 H        -6.284969         0.902885         2.999919
