19
Iteration:   533
 C         1.400741        -0.495297        -0.046760
 C        -0.057404        -0.168054        -0.080369
 C        -1.204929         0.175980        -0.033286
 C        -2.673224         0.372955         0.094350
 O        -3.007129         1.433607        -0.881818
 C        -3.142047         0.567174         1.512181
 C        -4.657701         0.638722         1.546010
 C        -5.187293         0.626456         3.004108
 O        -5.857914        -0.287318         3.398806
 H         1.846626        -0.091794         0.834831
 H         1.480850        -1.590999         0.004144
 H         1.972173        -0.102526        -0.889238
 H        -3.119061        -0.601511        -0.150498
 H        -2.739562         0.979927        -1.703427
 H        -2.778149        -0.224908         2.081804
 H        -2.539940         1.433518         1.761210
 H        -4.729014         1.712834         1.237516
 H        -5.300047        -0.191894         1.022545
 H        -5.021163         1.462798         3.744922
