19
Iteration:  2935charge 0 multiplicity 1
 C         1.268392        -0.066911         0.180640
 C        -0.036755         0.261933        -0.132697
 C        -1.256381         0.290889        -0.140000
 C        -2.654829        -0.055139         0.068995
 O        -3.700274         0.753156        -0.815473
 C        -3.047050         0.051125         1.588048
 C        -4.511778        -0.477805         1.928853
 C        -5.449167         0.505732         2.695810
 O        -4.969351         1.573562         3.085710
 H         1.639527        -0.046175         1.245829
 H         1.451344        -1.067502        -0.232865
 H         1.905042         0.651767        -0.377787
 H        -2.801396        -1.055993        -0.407261
 H        -3.237826         1.468792        -1.309421
 H        -2.216923        -0.501468         2.040259
 H        -3.017231         1.098290         1.917711
 H        -4.985231        -0.833257         1.032884
 H        -4.392175        -1.409160         2.599083
 H        -6.399764         0.138734         3.047393
