19
Iteration:  3548
 C         1.352453         0.386864        -0.484896
 C         0.089236        -0.008737         0.167958
 C        -1.147187        -0.197303         0.196291
 C        -2.583811        -0.191744         0.263154
 O        -3.176290         0.686297        -0.784880
 C        -3.257455         0.061564         1.640854
 C        -4.760397         0.060360         1.462555
 C        -5.625196         0.647020         2.561806
 O        -5.233270         1.214759         3.569104
 H         1.290486         0.099724        -1.567674
 H         1.536807         1.467343        -0.441497
 H         2.302257        -0.059728        -0.055080
 H        -3.025078        -1.092911        -0.050038
 H        -2.888072         1.619291        -0.814464
 H        -2.868523        -0.680083         2.393869
 H        -3.066097         1.095842         1.992996
 H        -4.773220         0.538440         0.522601
 H        -5.148433        -0.890461         1.389843
 H        -6.625945         0.145697         2.577636
