19
Iteration:   514
 C         1.393613        -0.543604        -0.133376
 C         0.070371        -0.066652        -0.039802
 C        -1.162987         0.092749         0.025889
 C        -2.621067         0.357923         0.043008
 O        -3.155830         1.361713        -0.850777
 C        -3.069233         0.581364         1.565088
 C        -4.632705         0.754278         1.611362
 C        -5.294104         0.652411         2.944427
 O        -5.902163        -0.302576         3.364233
 H         2.035891        -0.139015         0.690773
 H         1.459570        -1.555345        -0.193338
 H         1.790427        -0.110783        -1.077331
 H        -2.916226        -0.731951        -0.280399
 H        -2.519066         1.447166        -1.562991
 H        -2.741446        -0.436285         2.031737
 H        -2.579354         1.246676         2.230835
 H        -4.955096         1.682343         1.195208
 H        -4.822668        -0.142308         1.179195
 H        -5.068250         1.591200         3.543556
