19
Iteration:  2096
 C         1.382917         0.209634        -0.355717
 C         0.043023        -0.084779        -0.044378
 C        -1.176346        -0.236106         0.088898
 C        -2.613989        -0.094936         0.259185
 O        -3.009189         1.196979        -0.532654
 C        -3.140955        -0.106320         1.785224
 C        -4.713446        -0.267893         1.534970
 C        -5.727024         0.649902         2.390350
 O        -5.427783         1.271760         3.387640
 H         1.299255         0.409296        -1.415054
 H         1.612993         1.260021         0.129922
 H         2.251610        -0.424482        -0.137365
 H        -3.072418        -0.940007        -0.306717
 H        -2.293446         1.832150        -0.289240
 H        -2.477967        -0.892283         2.164517
 H        -3.035997         0.739717         2.483130
 H        -4.848721         0.110889         0.479441
 H        -5.354770        -1.247513         1.613861
 H        -6.750799         0.588810         1.880210
