19
Iteration:  4318charge 0 multiplicity 1
 C         1.138738         0.381723        -0.596770
 C        -0.035308         0.273506         0.345084
 C        -1.234857         0.053176         0.592112
 C        -2.667531         0.055147         0.907263
 O        -3.470938        -0.481048        -0.160768
 C        -3.221340         1.445621         1.281368
 C        -4.747639         1.590642         1.496769
 C        -5.235414         0.237739         1.915247
 O        -4.806916        -0.394752         2.841809
 H         2.158437         0.605924        -0.253442
 H         1.225938        -0.661757        -1.087924
 H         0.791951         1.120603        -1.322777
 H        -3.019581        -0.522803         1.807068
 H        -3.542733        -1.455138        -0.047078
 H        -2.723207         1.827961         2.190684
 H        -3.049037         2.200684         0.474503
 H        -4.969909         2.368794         2.348976
 H        -5.269901         1.922531         0.612405
 H        -6.112407        -0.164758         1.274606
