19
Iteration:   275
 C         1.407520        -0.279059        -0.146007
 C         0.058758         0.176708        -0.190775
 C        -1.170633         0.197806        -0.051211
 C        -2.602803         0.169667         0.008587
 O        -3.182892         1.342827        -0.557010
 C        -3.001254        -0.107190         1.537235
 C        -4.575743         0.143543         1.602582
 C        -5.076286         0.701095         2.875165
 O        -6.200767         0.479500         3.331581
 H         2.009359         0.083779         0.741334
 H         1.438470        -1.320578        -0.138845
 H         1.982663         0.064256        -1.042682
 H        -2.884490        -0.833425        -0.459020
 H        -2.480662         1.890134        -0.896131
 H        -2.774243        -1.087544         1.693627
 H        -2.354060         0.451981         2.255062
 H        -5.014781         0.878221         0.847470
 H        -5.061421        -0.862119         1.551374
 H        -4.245861         1.314094         3.600547
