19
Iteration:  1059charge 0 multiplicity 1
 C         1.454654        -0.146917        -0.418758
 C         0.014125         0.018610        -0.080971
 C        -1.169152        -0.079439         0.012875
 C        -2.629850         0.085169         0.145849
 O        -2.887278         1.360060        -0.580539
 C        -3.073578         0.252543         1.584614
 C        -4.512151         0.487792         1.632575
 C        -5.257795         0.115147         2.909164
 O        -6.302343         0.584943         3.331249
 H         1.908949        -0.720904         0.433665
 H         1.524189        -0.651609        -1.351231
 H         2.015027         0.793348        -0.551611
 H        -3.249577        -0.685753        -0.396930
 H        -2.496288         1.364476        -1.450722
 H        -2.610567        -0.442480         2.282743
 H        -2.479902         1.148108         1.942104
 H        -4.896484         1.526100         1.479317
 H        -5.070267        -0.033440         0.797115
 H        -4.568357        -0.452983         3.562329
