19
Iteration:  2186
 C         1.392487         0.290435        -0.327842
 C         0.009986         0.204524         0.117603
 C        -1.201167         0.022999         0.327900
 C        -2.640230        -0.079404         0.247884
 O        -3.165778         1.112958        -0.390132
 C        -3.451717        -0.658913         1.550388
 C        -4.962274        -0.387098         1.556959
 C        -5.540412         0.658103         2.489328
 O        -4.846181         1.528985         2.942236
 H         1.401511         0.681606        -1.372527
 H         1.939948         0.916772         0.400504
 H         1.789617        -0.743263        -0.167029
 H        -2.807265        -0.977450        -0.370565
 H        -2.884197         1.639994         0.417914
 H        -3.178185        -1.713289         1.695122
 H        -3.052112        -0.016723         2.348553
 H        -5.190916        -0.132426         0.491303
 H        -5.494078        -1.432030         1.623615
 H        -6.608437         0.688731         2.724826
