19
Iteration:    16
 C         1.519330        -0.141376        -0.077380
 C         0.017605        -0.094091        -0.102416
 C        -1.160618         0.123216         0.170101
 C        -2.692511         0.133316        -0.006104
 O        -3.062449         1.325515        -0.802368
 C        -3.219385         0.153643         1.358337
 C        -4.731011         0.346711         1.433463
 C        -5.106793         0.703948         2.902793
 O        -5.967484         0.217683         3.616901
 H         1.913627         0.205202         0.940236
 H         1.907369        -1.122855        -0.281488
 H         1.902400         0.598558        -0.844386
 H        -3.034283        -0.844293        -0.574510
 H        -2.185753         1.633211        -1.151982
 H        -3.088404        -0.883495         1.812076
 H        -2.651420         0.673227         2.086569
 H        -5.130129         1.203872         0.786049
 H        -5.209952        -0.640934         1.102449
 H        -4.502633         1.532155         3.128389
