19
Iteration:  2143
 C         1.373480         0.380494        -0.401793
 C         0.002968        -0.012518        -0.072458
 C        -1.164127        -0.211114         0.313026
 C        -2.609353        -0.200782         0.260803
 O        -3.075196         1.124511        -0.251998
 C        -3.307851        -0.356395         1.639186
 C        -4.814892        -0.326060         1.402360
 C        -5.662742         0.657538         2.396941
 O        -5.109101         1.451486         3.185942
 H         1.483983         0.628612        -1.508323
 H         1.729381         1.140927         0.297351
 H         1.920041        -0.565200        -0.103471
 H        -3.010314        -0.778088        -0.638788
 H        -2.736988         1.980056         0.116837
 H        -2.945227        -0.967150         2.477303
 H        -3.016971         0.650652         2.056322
 H        -5.103310         0.084213         0.434968
 H        -5.405802        -1.319604         1.424039
 H        -6.775362         0.528066         2.228652
