19
Iteration:  4156
 C         1.370592         0.545485        -0.510819
 C        -0.020916         0.310014        -0.199381
 C        -1.023982         0.093297         0.405817
 C        -2.495431        -0.127742         0.814825
 O        -3.291775        -0.552315        -0.320082
 C        -3.188644         1.144472         1.514493
 C        -4.740653         1.307073         1.380394
 C        -5.602733         0.562382         2.264215
 O        -5.309457        -0.174427         3.203685
 H         1.822246         1.285350         0.171733
 H         1.986189        -0.380062        -0.342147
 H         1.461050         0.862891        -1.553224
 H        -2.652815        -0.983054         1.438912
 H        -2.858389        -0.184107        -1.141336
 H        -3.009350         1.051229         2.612084
 H        -2.730291         2.117599         1.130067
 H        -5.119451         2.288126         1.131743
 H        -5.147081         0.713404         0.592922
 H        -6.723172         0.518479         1.976483
