19
Iteration:  2454charge 0 multiplicity 1
 C         1.177564         0.603137         0.131231
 C        -0.189696         0.258877         0.348693
 C        -1.400383         0.001866         0.189841
 C        -2.841659        -0.215371         0.001176
 O        -3.481266         0.865527        -0.546695
 C        -3.566695        -0.830331         1.347450
 C        -4.920095        -0.211931         1.449928
 C        -5.053209         0.972800         2.408488
 O        -4.168151         1.263378         3.168105
 H         1.243913         1.683022        -0.167040
 H         1.725895         0.759438         1.087272
 H         1.824076         0.070029        -0.607855
 H        -2.937326        -1.112550        -0.630844
 H        -2.711237         1.374704        -0.878554
 H        -3.742761        -1.907866         1.281254
 H        -3.150014        -0.766617         2.374420
 H        -5.578871         0.087920         0.582037
 H        -5.662654        -0.900930         2.108794
 H        -6.073396         1.471977         2.559892
