19
Iteration:  1792charge 0 multiplicity 1
 C         1.106746         0.154577         0.774025
 C        -0.201770         0.068891         0.339924
 C        -1.337788        -0.004796         0.022188
 C        -2.826903        -0.103918        -0.330693
 O        -3.209544         0.842644        -1.376070
 C        -3.458275         0.180279         1.101400
 C        -4.873252         0.775122         1.399589
 C        -5.210676         0.563555         2.829453
 O        -4.460020         0.259525         3.738609
 H         1.718318        -0.441241         0.149207
 H         1.375680         1.283166         0.662003
 H         1.097015        -0.289927         1.753496
 H        -3.052845        -1.042992        -0.839685
 H        -2.949842         1.748781        -1.192138
 H        -3.271831        -0.552991         1.851346
 H        -2.812428         0.924928         1.566490
 H        -4.791353         1.783990         0.928314
 H        -5.679078         0.284478         0.755315
 H        -6.283929         0.791202         3.096961
