19
Iteration:  1244charge 0 multiplicity 1
 C         1.442159        -0.176671         0.159904
 C         0.036335        -0.014569        -0.136138
 C        -1.177026         0.225529        -0.008551
 C        -2.682419         0.168275        -0.130688
 O        -3.126849         1.584690        -0.545084
 C        -3.320628        -0.169641         1.236190
 C        -4.832029        -0.055255         1.455992
 C        -5.008275         0.138718         2.962584
 O        -5.674683         0.996384         3.440167
 H         1.675749        -1.054224         0.830969
 H         2.024357        -0.227326        -0.767749
 H         1.816452         0.727827         0.689037
 H        -3.134363        -0.336157        -0.984277
 H        -3.142050         1.435524        -1.495425
 H        -2.932314        -1.115407         1.626512
 H        -2.950848         0.629484         1.905161
 H        -5.269732         0.652382         0.708337
 H        -5.187386        -0.986801         1.202737
 H        -4.596666        -0.630543         3.671790
