19
Iteration:   359
 C         1.397067        -0.104906        -0.443775
 C         0.001316        -0.256206        -0.142757
 C        -1.139482         0.006439         0.128138
 C        -2.551312         0.123180         0.134141
 O        -2.755234         1.371973        -0.575000
 C        -3.177555         0.385086         1.572865
 C        -4.634653         0.407823         1.561106
 C        -5.218235         0.603082         2.958587
 O        -6.254720         0.174250         3.347436
 H         1.831146         0.494818         0.371493
 H         1.894417        -1.114770        -0.440864
 H         1.556048         0.427231        -1.408154
 H        -3.160756        -0.729382        -0.270598
 H        -2.889123         1.190612        -1.543423
 H        -2.699950        -0.498568         2.257521
 H        -2.755175         1.366537         1.755232
 H        -5.123589         1.093859         0.949971
 H        -5.018619        -0.456292         1.118884
 H        -4.632832         1.257906         3.814925
