19
Iteration:  2368
 C         0.966426         0.421903         0.717153
 C        -0.334278         0.190162         0.097270
 C        -1.494330         0.048495        -0.273518
 C        -2.962311        -0.127849        -0.128646
 O        -3.701978         1.171302        -0.319194
 C        -3.242396        -0.817236         1.217529
 C        -4.716317        -0.651972         1.861921
 C        -4.830273         0.871235         2.178209
 O        -4.148206         1.555575         2.936701
 H         1.525005         1.286915         0.380510
 H         0.901180         0.429548         1.864669
 H         1.518201        -0.439483         0.390739
 H        -3.476638        -0.907798        -0.754856
 H        -3.122396         1.848925         0.028635
 H        -2.902192        -1.864879         0.945622
 H        -2.571545        -0.336903         1.981610
 H        -5.524195        -1.034535         1.167311
 H        -4.702464        -1.325237         2.658595
 H        -5.673653         1.288389         1.573806
