19
Iteration:  4810
 C         1.136372         0.388202         0.397568
 C        -0.309916        -0.030767         0.258691
 C        -1.533371         0.101369         0.387982
 C        -2.915648         0.037549         0.133929
 O        -3.061224        -0.249080        -1.272274
 C        -3.579031         1.222912         0.904909
 C        -5.037526         1.040692         1.484635
 C        -5.012239         0.145569         2.678339
 O        -4.275791         0.332257         3.645121
 H         1.580515        -0.509705        -0.082382
 H         1.434186         1.328772        -0.187435
 H         1.512253         0.394891         1.431036
 H        -3.419098        -0.876710         0.522136
 H        -2.120420        -0.300562        -1.587457
 H        -3.107390         1.447423         1.825402
 H        -3.624583         2.149702         0.312552
 H        -5.502717         2.001163         1.693156
 H        -5.721980         0.693945         0.696923
 H        -5.604130        -0.819743         2.631002
