19
Iteration:  1563
 C         1.493585        -0.219496        -0.361287
 C         0.128109         0.077719         0.015750
 C        -1.112996         0.116044         0.281515
 C        -2.584239         0.149994         0.326907
 O        -3.073821         1.048980        -0.827177
 C        -3.231132         0.543228         1.610133
 C        -4.776029         0.365448         1.293881
 C        -5.623563         0.059563         2.552321
 O        -5.500581         0.617213         3.640063
 H         1.577787        -1.201113        -0.650752
 H         1.862257         0.384877        -1.225283
 H         2.198840        -0.137907         0.401269
 H        -3.010468        -0.853853         0.315970
 H        -3.099162         1.929293        -0.457053
 H        -3.063073         0.035267         2.494050
 H        -3.119878         1.584555         1.833665
 H        -5.258495         1.166896         0.785052
 H        -4.781512        -0.476551         0.575178
 H        -6.649631        -0.445900         2.475717
