19
Iteration:  1932charge 0 multiplicity 1
 C         1.336235        -0.249384         0.407476
 C        -0.046498        -0.008711         0.044442
 C        -1.218829         0.237777         0.051427
 C        -2.643324         0.197476        -0.115885
 O        -3.194971         0.924454        -1.248079
 C        -3.380684         0.607187         1.184335
 C        -4.776347         0.034075         1.389000
 C        -5.491461         0.338714         2.870258
 O        -5.010239         0.694516         3.913736
 H         1.910709        -0.595823        -0.402357
 H         1.846085         0.752701         0.688780
 H         1.504282        -0.975956         1.182318
 H        -3.003115        -0.850541        -0.352754
 H        -2.727237         1.782370        -1.338195
 H        -2.618281         0.480325         1.894179
 H        -3.221348         1.661308         1.143537
 H        -5.335669         0.751046         0.821481
 H        -4.909891        -0.924772         0.956768
 H        -6.516662        -0.115680         2.958460
