19
Iteration:  3248charge 0 multiplicity 1
 C         1.314687         0.090469        -0.191883
 C        -0.090050         0.366175        -0.220606
 C        -1.271618         0.165450         0.066711
 C        -2.711158        -0.119148         0.275860
 O        -3.489801         1.080229        -0.139336
 C        -3.140694        -0.453169         1.732451
 C        -4.648260        -0.625850         1.789505
 C        -5.343087         0.605309         2.281995
 O        -4.986144         1.637933         2.834486
 H         1.360677        -0.979670         0.020890
 H         1.937981         0.162624        -1.135832
 H         1.895929         0.602657         0.569832
 H        -3.163009        -0.769530        -0.407297
 H        -3.049738         1.922388        -0.345162
 H        -2.633963        -1.424947         1.995608
 H        -2.659508         0.343627         2.326056
 H        -5.121579        -1.018519         0.899888
 H        -4.892794        -1.380414         2.447919
 H        -6.388625         0.498974         1.868273
