19
Iteration:  1739charge 0 multiplicity 1
 C         1.186360         0.171745         0.767493
 C        -0.128072         0.060747         0.131338
 C        -1.317062        -0.002751        -0.263146
 C        -2.817845        -0.114780        -0.204675
 O        -3.435758         0.926782        -1.026211
 C        -3.225466         0.116922         1.209676
 C        -4.642272         0.591378         1.312641
 C        -5.240276         0.731769         2.713509
 O        -4.793515         0.270403         3.738026
 H         1.864102        -0.519552         0.279759
 H         1.477167         1.197305         0.626582
 H         1.116061         0.052550         1.854598
 H        -3.231195        -1.074318        -0.503304
 H        -2.660568         1.387328        -1.353009
 H        -2.946709        -0.788733         1.782130
 H        -2.656878         0.816157         1.828130
 H        -4.472356         1.495736         0.752684
 H        -5.361330         0.140537         0.697680
 H        -6.249716         1.211733         2.811144
