19
Iteration:  1172charge 0 multiplicity 1
 C         1.440787        -0.154736        -0.110794
 C        -0.005862        -0.011941        -0.171474
 C        -1.245942        -0.015494        -0.040446
 C        -2.593252         0.227353         0.016416
 O        -3.036001         1.372648        -0.695336
 C        -3.044606         0.232514         1.541520
 C        -4.618802         0.208565         1.573665
 C        -5.338866        -0.047316         2.857761
 O        -5.882242         0.864807         3.428265
 H         1.702927        -0.904188         0.579467
 H         1.824862        -0.379151        -1.142854
 H         1.926809         0.759484         0.188290
 H        -3.118949        -0.619633        -0.438757
 H        -2.688363         2.125361        -0.153255
 H        -2.879459        -0.672672         2.151069
 H        -2.592841         1.038415         2.112260
 H        -5.050325         1.005764         1.082519
 H        -4.944790        -0.572256         0.810080
 H        -5.636813        -1.075605         3.254642
