19
Iteration:  2845charge 0 multiplicity 1
 C         1.327754         0.110327        -0.157904
 C        -0.048180        -0.133480         0.018876
 C        -1.268584        -0.218491         0.016112
 C        -2.748579        -0.039590        -0.027878
 O        -2.980814         0.946092        -1.061374
 C        -3.324791         0.542600         1.372035
 C        -4.535412        -0.250116         1.890433
 C        -5.346966         0.266309         3.170866
 O        -5.495850         1.453672         3.359475
 H         1.576521         0.750927         0.720821
 H         2.015963        -0.848842        -0.130503
 H         1.474574         0.789145        -1.076767
 H        -3.238718        -1.049929        -0.210149
 H        -2.724385         0.397886        -1.815365
 H        -2.568364         0.531516         2.165563
 H        -3.693804         1.572833         1.174668
 H        -5.124719        -0.310036         0.952900
 H        -4.349606        -1.350742         2.145461
 H        -5.420359        -0.430537         4.079993
