19
Iteration:  4550charge 0 multiplicity 1
 C         1.082741         0.497599        -0.072356
 C        -0.178317         0.004997         0.327201
 C        -1.342334        -0.019636         0.387765
 C        -2.746659        -0.075067         0.450444
 O        -3.316383        -0.087663        -0.864565
 C        -3.190404         1.133481         1.192446
 C        -4.759387         1.033748         1.259672
 C        -5.323755         0.381106         2.517713
 O        -4.631645         0.028015         3.438890
 H         1.932307         0.240542         0.595221
 H         1.259249        -0.140487        -0.912426
 H         1.187111         1.615249        -0.170257
 H        -3.205850        -1.005219         0.889014
 H        -2.781673         0.609726        -1.247320
 H        -2.812084         1.124671         2.253810
 H        -3.086685         2.054815         0.567367
 H        -5.275375         2.023910         1.297065
 H        -5.067100         0.527949         0.358715
 H        -6.476809         0.120977         2.608272
