19
Iteration:   308charge 0 multiplicity 1
 C         1.554980        -0.204261        -0.263695
 C         0.096762        -0.025334        -0.185854
 C        -1.113496         0.023157        -0.101636
 C        -2.544738         0.136644         0.013091
 O        -3.119965         1.389559        -0.485529
 C        -3.030256         0.083942         1.517456
 C        -4.622670         0.240912         1.637609
 C        -5.222068         0.677521         2.956078
 O        -6.305882         0.376928         3.381961
 H         2.086933         0.301268         0.608850
 H         1.812339        -1.220625        -0.295678
 H         1.914070         0.226358        -1.238437
 H        -3.116958        -0.695684        -0.496811
 H        -2.526126         1.707160        -1.189697
 H        -2.542073        -0.705447         1.976542
 H        -2.514473         0.950540         1.914385
 H        -4.918390         1.032422         0.811162
 H        -5.232683        -0.664535         1.312843
 H        -4.618821         1.367721         3.560296
