19
Iteration:   183
 C         1.388398        -0.002316         0.113911
 C        -0.035049         0.016925        -0.100214
 C        -1.262914        -0.058986        -0.192079
 C        -2.702252         0.181614        -0.128888
 O        -3.024388         1.525112        -0.648174
 C        -3.175056        -0.246590         1.290299
 C        -4.665153        -0.129705         1.694102
 C        -4.912014         0.679148         2.881574
 O        -6.003119         0.651383         3.426080
 H         1.660048         0.464129         1.065045
 H         1.791926        -1.149054         0.039477
 H         1.848112         0.547381        -0.730586
 H        -3.387824        -0.431263        -0.804896
 H        -2.368587         2.090553        -0.143715
 H        -2.629162        -1.196365         1.687833
 H        -2.506247         0.289101         1.931490
 H        -5.160544         0.653705         0.915624
 H        -5.271148        -1.027637         1.705354
 H        -4.205599         1.418971         3.350156
