19
Iteration:   854
 C         1.361583        -0.270829        -0.206053
 C        -0.081433        -0.083447        -0.086374
 C        -1.286434        -0.161802        -0.099394
 C        -2.584777         0.261077         0.089151
 O        -2.807359         1.536530        -0.489040
 C        -3.158858         0.308203         1.541921
 C        -4.663328         0.334417         1.469382
 C        -5.271683         0.763137         2.753606
 O        -5.907914         0.024204         3.480934
 H         1.887622        -0.333528         0.790988
 H         1.608568        -1.244190        -0.728285
 H         1.873834         0.560124        -0.730696
 H        -3.277338        -0.435088        -0.554621
 H        -2.184728         1.589053        -1.270065
 H        -2.850144        -0.736673         1.864108
 H        -2.707587         1.131974         2.134144
 H        -5.005598         1.143902         0.817655
 H        -5.336257        -0.547772         1.339366
 H        -5.369853         1.837550         3.105986
