19
Iteration:  2204charge 0 multiplicity 1
 C         1.341145         0.274061        -0.207899
 C        -0.031444         0.141177         0.203202
 C        -1.248649         0.094241         0.402540
 C        -2.712147        -0.114120         0.182216
 O        -3.336862         1.081851        -0.307231
 C        -3.369006        -0.618968         1.430490
 C        -4.955851        -0.489335         1.516985
 C        -5.321659         0.625526         2.458328
 O        -4.762684         1.602691         2.902213
 H         1.483919         0.672145        -1.191148
 H         2.105687         0.936713         0.354421
 H         1.869015        -0.643964        -0.348215
 H        -2.862524        -0.656896        -0.745917
 H        -3.102433         1.967196         0.095000
 H        -3.105552        -1.685642         1.395549
 H        -3.040532         0.069686         2.226544
 H        -5.293292        -0.153033         0.486143
 H        -5.414532        -1.381712         1.907543
 H        -6.474129         0.756452         2.649444
