19
Iteration:  3346
 C         1.263442        -0.140919         0.126938
 C        -0.249287         0.001144         0.008457
 C        -1.424396         0.155980        -0.281613
 C        -2.801634         0.162163        -0.034991
 O        -3.452520         1.355172        -0.601287
 C        -2.975564         0.034737         1.544236
 C        -4.304399        -0.658335         2.053738
 C        -5.350784         0.309950         2.563929
 O        -5.157584         1.445922         2.951683
 H         1.597153        -1.207870        -0.073374
 H         1.928946         0.536089        -0.524068
 H         1.539187         0.177524         1.180716
 H        -3.145379        -0.730940        -0.501479
 H        -3.030375         2.020884        -0.017940
 H        -2.076962        -0.501640         1.859599
 H        -2.855419         1.037475         1.971389
 H        -4.722798        -1.407065         1.403229
 H        -3.967928        -1.283344         2.969221
 H        -6.418201        -0.039907         2.506068
