19
Iteration:  2576
 C         1.174678         0.640011         0.053974
 C        -0.134781         0.069467        -0.018608
 C        -1.296295        -0.296652         0.017421
 C        -2.777164        -0.277296         0.043584
 O        -3.179389         0.930403        -0.704133
 C        -3.388790        -0.486570         1.531570
 C        -4.905689        -0.159985         1.559949
 C        -5.344085         0.823345         2.562313
 O        -4.647688         1.310789         3.436665
 H         1.327333         1.740610         0.071835
 H         1.860999         0.393613         0.927646
 H         1.684693         0.406769        -0.893919
 H        -3.170063        -1.076421        -0.577515
 H        -2.371648         1.476574        -0.870833
 H        -3.164291        -1.389508         2.070259
 H        -2.779259         0.313965         1.995286
 H        -5.272003         0.205564         0.577494
 H        -5.398246        -1.174989         1.767191
 H        -6.414133         1.258905         2.386657
