19
Iteration:  4155
 C         1.364171         0.557582        -0.511244
 C        -0.013568         0.295071        -0.189531
 C        -1.025462         0.091614         0.409945
 C        -2.491845        -0.122603         0.811386
 O        -3.298832        -0.548488        -0.325924
 C        -3.182420         1.146797         1.511952
 C        -4.739761         1.296040         1.383552
 C        -5.597995         0.560354         2.263040
 O        -5.314533        -0.171234         3.204359
 H         1.849880         1.292606         0.144175
 H         1.985862        -0.388397        -0.332584
 H         1.429991         0.871266        -1.545292
 H        -2.627020        -0.990320         1.427306
 H        -2.857128        -0.224365        -1.146802
 H        -2.970031         1.035772         2.601810
 H        -2.768451         2.139879         1.105812
 H        -5.105919         2.297561         1.125887
 H        -5.138148         0.727150         0.584423
 H        -6.754907         0.537912         2.020682
