19
Iteration:   128
 C         1.314474         0.137103         0.114415
 C        -0.004961        -0.109067        -0.144260
 C        -1.217399        -0.220487        -0.274120
 C        -2.620833         0.126210        -0.132571
 O        -3.021381         1.502143        -0.341076
 C        -3.240643        -0.245240         1.307387
 C        -4.629907         0.042805         1.507177
 C        -4.933647         0.754516         2.809441
 O        -5.925312         0.587018         3.477294
 H         1.365829         0.530294         1.132705
 H         1.913075        -0.915791         0.271195
 H         1.903694         0.842272        -0.484166
 H        -3.384441        -0.436021        -0.848468
 H        -3.538295         1.544264        -1.188387
 H        -3.042265        -1.328614         1.724098
 H        -2.602586         0.552623         1.772450
 H        -4.865465         0.969664         0.764096
 H        -5.261985        -0.822563         1.299131
 H        -4.370259         1.564506         3.309196
