19
Iteration:  2598
 C         1.255842         0.505710         0.090674
 C        -0.136696         0.079051        -0.081660
 C        -1.305713        -0.255125        -0.070117
 C        -2.770333        -0.231023         0.000266
 O        -3.179213         0.883282        -0.758734
 C        -3.318007        -0.197290         1.441253
 C        -4.902162        -0.326155         1.652044
 C        -5.362621         0.850249         2.563189
 O        -4.771201         1.284131         3.529940
 H         1.477500         1.585525         0.350263
 H         1.775242         0.085380         1.029159
 H         1.926384         0.358789        -0.766766
 H        -3.314102        -1.033684        -0.472836
 H        -2.575106         1.618564        -0.640010
 H        -2.705158        -0.910116         1.943982
 H        -2.931486         0.644102         2.062245
 H        -5.454074        -0.139759         0.718853
 H        -5.031480        -1.349913         2.092272
 H        -6.484671         1.119614         2.364762
