19
Iteration:  4065charge 0 multiplicity 1
 C         1.059037         0.662015        -0.226765
 C        -0.228050         0.250802         0.110295
 C        -1.239259        -0.053803         0.527317
 C        -2.650826        -0.284370         0.654520
 O        -3.097312        -0.395860        -0.703014
 C        -3.198768         1.005449         1.282062
 C        -4.790480         1.366795         1.273518
 C        -5.419288         0.637787         2.419611
 O        -4.866112        -0.127899         3.256143
 H         1.094852         1.740886         0.063583
 H         1.937283         0.111567         0.314844
 H         1.244202         0.638946        -1.320136
 H        -2.887931        -1.117241         1.328222
 H        -3.577311        -1.206745        -0.831951
 H        -2.718038         0.969112         2.309696
 H        -2.582307         1.831029         0.760267
 H        -4.795980         2.485298         1.379133
 H        -5.176279         1.012320         0.360886
 H        -6.507565         0.585292         2.477399
