19
Iteration:   119charge 0 multiplicity 1
 C         1.368298         0.133919         0.144230
 C        -0.053083        -0.135293        -0.170673
 C        -1.256102        -0.177182        -0.220628
 C        -2.687698         0.077511        -0.066822
 O        -3.010096         1.505167        -0.354758
 C        -3.154527        -0.249067         1.294111
 C        -4.650636         0.152307         1.456036
 C        -4.925466         0.778701         2.808539
 O        -5.931346         0.536944         3.469707
 H         1.420254         0.594901         1.111137
 H         2.016445        -0.806316         0.125752
 H         1.796863         0.791712        -0.613292
 H        -3.161607        -0.634632        -0.837397
 H        -3.738150         1.492862        -1.016937
 H        -2.999220        -1.319225         1.458670
 H        -2.614989         0.418127         2.103043
 H        -4.992552         0.811850         0.632252
 H        -5.312921        -0.685678         1.435094
 H        -4.066796         1.451183         3.008058
