19
Iteration:  1940
 C         1.396894        -0.285376         0.362188
 C         0.037175         0.046943         0.059880
 C        -1.182969         0.259421         0.031987
 C        -2.746450         0.175387        -0.060127
 O        -3.214175         0.918549        -1.240025
 C        -3.322622         0.618843         1.269619
 C        -4.826702         0.062015         1.370940
 C        -5.463117         0.241260         2.833376
 O        -5.041911         0.763802         3.867327
 H         1.901543        -0.664871        -0.553680
 H         1.902942         0.639149         0.593824
 H         1.383944        -1.123715         1.083138
 H        -2.973636        -0.837688        -0.378596
 H        -2.733379         1.779296        -1.163055
 H        -2.705339         0.330060         2.162146
 H        -3.355222         1.733596         1.242756
 H        -5.575166         0.669574         0.836948
 H        -4.920604        -0.970067         1.003435
 H        -6.536559        -0.136004         2.895491
