19
Iteration:  1700charge 0 multiplicity 1
 C         1.342402         0.217449         0.544631
 C        -0.058864        -0.070975         0.006876
 C        -1.265505        -0.031341        -0.162152
 C        -2.784288         0.001651        -0.090386
 O        -3.261320         1.074324        -0.909474
 C        -3.281920         0.098467         1.290791
 C        -4.742403         0.405914         1.325343
 C        -5.362735         0.839454         2.741396
 O        -4.964276         0.277220         3.705171
 H         2.163363        -0.521966         0.181565
 H         1.647629         1.193430         0.079226
 H         1.365731         0.126658         1.674921
 H        -3.206198        -1.033084        -0.409331
 H        -3.119674         0.780713        -1.855874
 H        -2.945792        -0.851348         1.845625
 H        -2.566377         0.863671         1.692175
 H        -5.186136         1.248026         0.704047
 H        -5.410878        -0.559644         1.114092
 H        -6.294665         1.347089         2.541620
