19
Iteration:  1842charge 0 multiplicity 1
 C         1.157888         0.124143         0.731733
 C        -0.259827        -0.037319         0.314695
 C        -1.435081        -0.135339         0.010417
 C        -2.823790        -0.006181        -0.174950
 O        -3.131248         0.938393        -1.289453
 C        -3.394511         0.539483         1.122058
 C        -4.981143         0.414003         1.372975
 C        -5.264556         0.612598         2.807941
 O        -4.395571         0.271944         3.604829
 H         1.848801        -0.344679        -0.001752
 H         1.349258         1.179497         0.695092
 H         1.299320        -0.420121         1.678622
 H        -3.197944        -0.975230        -0.595276
 H        -2.523724         1.720898        -1.346978
 H        -3.071336        -0.009740         2.031118
 H        -3.038261         1.559927         1.372345
 H        -5.598917         1.146380         0.832776
 H        -5.341077        -0.573275         1.082092
 H        -6.269735         0.946382         3.148215
