19
Iteration:   706
 C         1.308659        -0.599528         0.337186
 C        -0.120771        -0.170271         0.064775
 C        -1.297295         0.210012        -0.122449
 C        -2.679708         0.462478        -0.098404
 O        -3.273809         1.635911        -0.815632
 C        -3.190567         0.232768         1.287483
 C        -4.686275         0.408110         1.361746
 C        -5.023438         0.725373         2.802290
 O        -5.464946        -0.104401         3.560042
 H         1.593435        -0.450763         1.357580
 H         1.471079        -1.706294         0.066937
 H         2.012889        -0.086810        -0.342544
 H        -3.234255        -0.420764        -0.578007
 H        -2.924487         2.431211        -0.383769
 H        -2.820186        -0.739508         1.500919
 H        -2.484834         0.812570         1.962900
 H        -4.904817         1.028000         0.553123
 H        -4.948467        -0.582055         1.228008
 H        -4.695872         1.735356         3.301462
