19
Iteration:  4025
 C         1.256247         0.667351         0.002990
 C        -0.094496         0.237879         0.262951
 C        -1.235585        -0.152410         0.387032
 C        -2.717463        -0.118880         0.551558
 O        -3.488037        -0.405952        -0.728160
 C        -3.234677         1.175042         1.076895
 C        -4.836265         1.275841         1.186036
 C        -5.344210         0.521515         2.499758
 O        -4.610657        -0.137795         3.293596
 H         1.299334         1.741368         0.059612
 H         2.007861         0.187582         0.650098
 H         1.558825         0.350108        -0.972395
 H        -2.941394        -0.920435         1.258633
 H        -3.770682        -1.347425        -0.565425
 H        -2.987924         1.182630         2.138825
 H        -2.802264         2.130108         0.725742
 H        -5.329839         2.246930         1.274503
 H        -5.514695         0.886779         0.356718
 H        -6.453411         0.651997         2.594190
