19
Iteration:  3273charge 0 multiplicity 1
 C         1.257995        -0.044130        -0.018574
 C        -0.061394         0.282445        -0.213482
 C        -1.272979         0.161489        -0.212402
 C        -2.763070         0.007853         0.168302
 O        -3.486964         1.125678        -0.255609
 C        -3.034808        -0.261735         1.720629
 C        -4.526012        -0.562133         1.889516
 C        -5.483680         0.523232         2.339624
 O        -5.011056         1.508773         2.897460
 H         1.453070        -1.037528         0.166665
 H         1.922835         0.279257        -0.794108
 H         1.553967         0.575133         0.811617
 H        -3.250569        -0.819398        -0.417448
 H        -3.003131         1.957160        -0.059949
 H        -2.424212        -1.135187         1.950259
 H        -2.613003         0.592962         2.286546
 H        -4.887699        -1.271704         1.075823
 H        -4.626804        -1.225208         2.762235
 H        -6.562943         0.443594         2.024545
