19
Iteration:  3231
 C         1.348389         0.182579        -0.339936
 C        -0.116320         0.183616        -0.065609
 C        -1.324582         0.212756         0.207228
 C        -2.694186        -0.058866         0.303179
 O        -3.512402         1.034462        -0.089602
 C        -3.123346        -0.570121         1.672308
 C        -4.655166        -0.599823         1.784759
 C        -5.400496         0.708625         2.176189
 O        -4.910563         1.638802         2.799239
 H         1.880890        -0.773488        -0.107792
 H         1.512410         0.493364        -1.356912
 H         1.872452         0.965373         0.265887
 H        -2.796500        -0.977371        -0.420284
 H        -2.823152         1.724161        -0.171668
 H        -2.659732        -1.512624         1.891002
 H        -2.876936         0.125331         2.488847
 H        -5.192663        -0.843018         0.792319
 H        -5.063752        -1.456464         2.500507
 H        -6.508659         0.572754         2.079617
