19
Iteration:  1662charge 0 multiplicity 1
 C         1.427872         0.116958         0.148992
 C        -0.077437         0.121438         0.204978
 C        -1.270067        -0.141812         0.085320
 C        -2.723530         0.014761        -0.048663
 O        -3.016278         1.129423        -0.886302
 C        -3.337862         0.214768         1.220768
 C        -4.928329         0.279263         1.324047
 C        -5.432850         0.679613         2.711666
 O        -5.078092         0.351613         3.802444
 H         1.731911        -0.765133        -0.364300
 H         1.850011         0.972630        -0.391695
 H         1.926713         0.154921         1.102250
 H        -3.161926        -0.894171        -0.623062
 H        -2.659304         0.843039        -1.726400
 H        -3.037603        -0.491041         1.939666
 H        -3.116710         1.235999         1.530766
 H        -5.265492         0.959470         0.579354
 H        -5.336274        -0.659134         1.028707
 H        -6.316516         1.274304         2.692813
