19
Iteration:  4544
 C         1.076625         0.513387        -0.118993
 C        -0.120453        -0.035176         0.385608
 C        -1.345587        -0.040016         0.407095
 C        -2.728049        -0.070664         0.465077
 O        -3.322102        -0.098790        -0.882574
 C        -3.243936         1.204335         1.215780
 C        -4.733107         1.040371         1.242483
 C        -5.332164         0.369176         2.515222
 O        -4.655200        -0.008473         3.441770
 H         1.887187         0.283194         0.576164
 H         1.284868        -0.033028        -1.083862
 H         1.070111         1.587207        -0.336016
 H        -3.179525        -0.932131         0.962719
 H        -2.714034         0.471685        -1.439028
 H        -2.721657         1.164935         2.161935
 H        -2.972394         2.157649         0.757647
 H        -5.238221         2.023965         1.288434
 H        -5.237591         0.511302         0.384090
 H        -6.415660         0.393031         2.619007
