19
Iteration:  4059charge 0 multiplicity 1
 C         1.091770         0.671113        -0.180907
 C        -0.191005         0.224707         0.109093
 C        -1.336210        -0.018555         0.511192
 C        -2.667851        -0.270026         0.688232
 O        -3.129190        -0.412398        -0.736062
 C        -3.141395         0.989677         1.280646
 C        -4.796343         1.349347         1.313382
 C        -5.437751         0.638312         2.444612
 O        -4.793324        -0.087698         3.197242
 H         1.167599         1.728263         0.070217
 H         1.839111         0.184407         0.407997
 H         1.248351         0.616709        -1.254499
 H        -2.955441        -1.076985         1.381803
 H        -3.644867        -1.213626        -0.993230
 H        -2.717396         0.882387         2.268999
 H        -2.626275         1.760948         0.737932
 H        -5.002480         2.419992         1.338889
 H        -5.231878         0.934558         0.341697
 H        -6.562316         0.439428         2.503912
