19
Iteration:   541charge 0 multiplicity 1
 C         1.340039        -0.481062         0.016622
 C        -0.044370        -0.209842        -0.108579
 C        -1.216834         0.184905        -0.037370
 C        -2.690501         0.296443         0.054666
 O        -2.953805         1.465918        -0.850081
 C        -3.137549         0.580898         1.440020
 C        -4.709004         0.690395         1.568246
 C        -5.160472         0.611957         2.996453
 O        -5.848611        -0.304298         3.440010
 H         1.734300         0.018853         0.907914
 H         1.647638        -1.633113         0.006871
 H         1.829953        -0.031077        -0.863217
 H        -2.952831        -0.652612        -0.389599
 H        -2.897908         1.014568        -1.700080
 H        -2.606831        -0.113706         2.098308
 H        -2.787047         1.609965         1.869668
 H        -5.043019         1.684885         1.093384
 H        -5.046080        -0.238649         0.973462
 H        -4.645694         1.410159         3.577820
