19
Iteration:  3448charge 0 multiplicity 1
 C         1.394044        -0.056608        -0.335548
 C         0.050669         0.020998         0.144392
 C        -1.183160         0.079582         0.046916
 C        -2.645134         0.051379         0.139226
 O        -3.416624         1.126704        -0.486469
 C        -3.124501         0.004675         1.559225
 C        -4.593051        -0.398790         1.679601
 C        -5.381985         0.334352         2.729541
 O        -5.433623         1.513795         3.064850
 H         1.485169        -0.791926        -1.162092
 H         1.699366         0.975311        -0.722196
 H         2.173747        -0.403334         0.396814
 H        -3.062650        -0.825270        -0.247010
 H        -2.788819         1.825622        -0.751149
 H        -2.401311        -0.674613         2.063193
 H        -2.967307         1.031914         1.965354
 H        -5.146385        -0.223419         0.723477
 H        -4.550834        -1.425531         1.843529
 H        -6.064765        -0.374459         3.251182
