19
Iteration:  1866charge 0 multiplicity 1
 C         1.169213         0.026875         0.671938
 C        -0.263093         0.030003         0.278574
 C        -1.437706        -0.158077         0.003545
 C        -2.863662        -0.017247        -0.151736
 O        -3.147211         1.002613        -1.270139
 C        -3.373034         0.672960         1.099346
 C        -4.769496         0.278878         1.310271
 C        -5.242038         0.533668         2.763899
 O        -4.573934         0.350746         3.775546
 H         1.760797        -0.394865        -0.107339
 H         1.463454         1.105528         0.703346
 H         1.322027        -0.564854         1.541906
 H        -3.275641        -0.979799        -0.516959
 H        -2.369575         1.598856        -1.219195
 H        -2.942982         0.360391         2.040993
 H        -3.290739         1.742283         1.162186
 H        -5.483460         0.812942         0.698464
 H        -4.963362        -0.804201         1.173375
 H        -6.315397         0.803321         2.893890
