19
Iteration:  1016charge 0 multiplicity 1
 C         1.618519        -0.140461        -0.346984
 C         0.076111        -0.346906        -0.417597
 C        -1.004466         0.021017        -0.090745
 C        -2.631181         0.153255         0.156272
 O        -3.097895         1.387628        -0.491158
 C        -2.982929         0.311380         1.628608
 C        -4.597306         0.566003         1.769876
 C        -5.278158         0.249873         3.021107
 O        -6.446087         0.481358         3.220172
 H         1.987571        -0.440443         0.664666
 H         2.274908        -0.520746        -1.104871
 H         1.778205         0.942450        -0.410915
 H        -3.000231        -0.846443        -0.415260
 H        -2.637921         1.241211        -1.299211
 H        -2.739520        -0.440454         2.374965
 H        -2.464035         1.206174         2.074325
 H        -4.501085         1.544328         1.306699
 H        -4.889997        -0.245510         0.943613
 H        -4.566895        -0.357301         3.729433
