19
Iteration:  1262
 C         1.390668        -0.155589         0.198470
 C         0.012479         0.093620        -0.071086
 C        -1.221209         0.192650        -0.135094
 C        -2.631392         0.238036        -0.159574
 O        -3.071552         1.524590        -0.544080
 C        -3.279109        -0.252289         1.229466
 C        -4.868128        -0.117653         1.455272
 C        -5.020981         0.210291         2.924964
 O        -5.655972         1.036313         3.511029
 H         1.454638        -1.091773         0.807530
 H         2.025174        -0.315743        -0.647307
 H         1.880264         0.563714         0.888426
 H        -2.931444        -0.562244        -0.970849
 H        -3.399901         1.677732        -1.421974
 H        -3.049040        -1.301717         0.947492
 H        -2.733561         0.319297         2.032653
 H        -5.468562         0.661142         0.885475
 H        -5.357426        -1.218175         1.259302
 H        -4.388627        -0.421670         3.619964
