19
Iteration:  4127
 C         1.266974         0.630504        -0.559818
 C         0.088498         0.150201         0.219033
 C        -1.113169         0.088230         0.327500
 C        -2.585483        -0.156561         0.784480
 O        -3.316030        -0.390866        -0.441394
 C        -3.075591         1.152139         1.333086
 C        -4.607817         1.156895         1.275819
 C        -5.527860         0.555700         2.364583
 O        -5.383471        -0.181382         3.299398
 H         1.526292         1.618044        -0.098050
 H         2.187661         0.137942        -0.542554
 H         0.848235         0.949866        -1.545164
 H        -2.733511        -1.075035         1.436574
 H        -2.751694        -1.033939        -0.881449
 H        -2.833811         1.181361         2.393058
 H        -2.747313         1.983271         0.776757
 H        -4.840817         2.238071         1.402215
 H        -5.226302         0.962824         0.298594
 H        -6.595409         0.947952         2.288249
