19
Iteration:  2129
 C         1.348154         0.326197        -0.370832
 C         0.023129        -0.110776        -0.061871
 C        -1.168138        -0.228219         0.246969
 C        -2.635580        -0.168056         0.237714
 O        -3.100131         1.137455        -0.256301
 C        -3.222594        -0.185085         1.646266
 C        -4.815612        -0.226287         1.487535
 C        -5.611959         0.630262         2.336643
 O        -5.227919         1.362633         3.206774
 H         1.376903         0.643451        -1.405287
 H         1.551876         1.342556         0.150313
 H         2.253403        -0.250232        -0.365081
 H        -2.987147        -1.047633        -0.327284
 H        -2.358859         1.620352         0.124574
 H        -2.839695        -1.103754         2.130557
 H        -2.942643         0.697728         2.287239
 H        -4.953260         0.157135         0.447612
 H        -5.147781        -1.336607         1.499436
 H        -6.722141         0.590913         2.166817
