19
Iteration:  3653charge 0 multiplicity 1
 C         1.287885         0.467819         0.122957
 C        -0.031193         0.119876         0.189405
 C        -1.245080         0.072066         0.093511
 C        -2.646546        -0.274287         0.049893
 O        -3.387513         0.086889        -1.100938
 C        -3.309744         0.357492         1.320293
 C        -4.784613         0.525331         1.367788
 C        -5.406214         0.850114         2.732588
 O        -4.851293         0.738379         3.823690
 H         1.584925         0.649523        -0.895045
 H         1.626387         1.365593         0.725367
 H         1.887093        -0.345240         0.477120
 H        -2.857953        -1.316071         0.137934
 H        -3.192744        -0.360367        -1.941577
 H        -3.102381        -0.201718         2.198251
 H        -2.732769         1.276068         1.403127
 H        -5.174595         1.133456         0.490003
 H        -5.179894        -0.430199         0.915982
 H        -6.413587         1.337993         2.594006
