19
Iteration:  2987
 C         1.317649         0.166657         0.064203
 C        -0.186662         0.137957         0.079097
 C        -1.360046         0.251761        -0.201817
 C        -2.713882        -0.107899         0.069490
 O        -3.708027         0.705004        -0.579244
 C        -2.949170        -0.259108         1.653996
 C        -4.488353        -0.385083         1.883686
 C        -5.315270         0.731927         2.333752
 O        -4.911197         1.575132         3.100445
 H         1.589875        -0.073946         1.115184
 H         1.787483        -0.705839        -0.593144
 H         1.675047         1.191780        -0.324468
 H        -2.872652        -1.053109        -0.462213
 H        -4.093664         1.318115         0.068360
 H        -2.382372        -1.198972         1.801943
 H        -2.474744         0.474178         2.335607
 H        -5.013035        -0.684670         0.951985
 H        -4.639604        -1.217535         2.516691
 H        -6.333696         0.818997         1.823377
