19
Iteration:  4171
 C         1.425754         0.430375        -0.520475
 C        -0.145907         0.445754        -0.250009
 C        -1.148466         0.141945         0.355557
 C        -2.543525        -0.125307         0.893755
 O        -3.184621        -0.603479        -0.293496
 C        -3.223466         1.151876         1.596013
 C        -4.718583         1.336014         1.253951
 C        -5.655496         0.512056         2.269262
 O        -5.235033        -0.185737         3.187242
 H         1.894830         1.113866         0.239955
 H         1.758530        -0.547883        -0.299248
 H         1.845594         0.900809        -1.447547
 H        -2.353291        -0.959853         1.640627
 H        -3.168283         0.163548        -0.871079
 H        -3.048594         0.918402         2.654204
 H        -2.642117         2.002757         1.318221
 H        -4.959478         2.416552         1.297883
 H        -4.781734         1.081119         0.113619
 H        -6.729544         0.504272         2.061481
