19
Iteration:  1296charge 0 multiplicity 1
 C         1.340106        -0.087520         0.250587
 C        -0.088498         0.056876         0.123664
 C        -1.261386         0.060203        -0.190929
 C        -2.712402         0.136416        -0.320166
 O        -3.194996         1.563527        -0.422710
 C        -3.198211        -0.312523         1.143457
 C        -4.709410         0.043043         1.544746
 C        -4.870653         0.203816         2.947136
 O        -5.647015         1.034988         3.358600
 H         1.422752        -1.108654         0.743260
 H         1.848358        -0.129577        -0.664967
 H         1.820060         0.673946         0.908398
 H        -3.236069        -0.367601        -1.217215
 H        -3.363785         1.789300        -1.350252
 H        -2.848975        -1.382723         1.160323
 H        -2.511692         0.012310         1.986171
 H        -4.977009         0.965014         0.920609
 H        -5.305420        -0.890661         1.120927
 H        -4.396186        -0.551852         3.618247
