19
Iteration:   118charge 0 multiplicity 1
 C         1.372001         0.134492         0.146437
 C        -0.053771        -0.136409        -0.172207
 C        -1.262113        -0.171184        -0.215696
 C        -2.693061         0.074117        -0.066010
 O        -3.008385         1.503424        -0.356463
 C        -3.149230        -0.242174         1.296309
 C        -4.653843         0.156344         1.454703
 C        -4.926764         0.781404         2.808490
 O        -5.928917         0.534112         3.468282
 H         1.429521         0.605337         1.111754
 H         2.040385        -0.827641         0.115097
 H         1.783410         0.791589        -0.626680
 H        -3.164868        -0.649110        -0.852330
 H        -3.736165         1.488296        -0.998035
 H        -2.974163        -1.347595         1.461208
 H        -2.602750         0.364727         2.116442
 H        -5.011168         0.829349         0.605252
 H        -5.326038        -0.684944         1.439461
 H        -4.066372         1.430381         2.997706
