19
Iteration:  1449charge 0 multiplicity 1
 C         1.443019        -0.110191        -0.163829
 C         0.028478        -0.108997         0.020185
 C        -1.140209         0.051260         0.098557
 C        -2.674343         0.164603         0.038183
 O        -3.054550         1.355196        -0.550356
 C        -3.244530         0.307146         1.412726
 C        -4.751572         0.198091         1.346602
 C        -5.278348        -0.013497         2.768846
 O        -5.678807         0.872677         3.501331
 H         1.933012        -1.104900         0.018163
 H         1.645572         0.399663        -1.050494
 H         1.813961         0.483308         0.709051
 H        -3.196240        -0.649973        -0.456968
 H        -2.801238         1.206402        -1.461486
 H        -2.972222        -0.749632         1.797311
 H        -3.081234         1.214494         2.034848
 H        -5.323390         1.081138         1.010831
 H        -5.054216        -0.630611         0.793949
 H        -4.841877        -0.981764         3.319482
