19
Iteration:  2048charge 0 multiplicity 1
 C         1.552380        -0.047941        -0.288703
 C         0.092530         0.073887        -0.073658
 C        -1.093092         0.009183         0.155318
 C        -2.604962         0.023073         0.170929
 O        -3.055877         1.066485        -0.732214
 C        -3.260886         0.164283         1.587959
 C        -4.812334        -0.194917         1.575240
 C        -5.816735         0.482318         2.584052
 O        -5.411779         1.146095         3.520580
 H         1.874297        -0.202849        -1.365015
 H         2.182690         0.653805         0.219672
 H         1.874682        -0.973053         0.278192
 H        -2.791474        -0.924700        -0.401717
 H        -2.654282         1.891264        -0.440130
 H        -2.711807        -0.456701         2.375870
 H        -3.017072         1.190304         1.927349
 H        -5.200586         0.039106         0.541866
 H        -4.846807        -1.338921         1.606761
 H        -6.925261         0.376776         2.290503
