19
Iteration:  4934
 C         1.231184         0.296979         0.561414
 C        -0.076167         0.344370         0.013953
 C        -1.315337         0.195488         0.115724
 C        -2.814786        -0.024351         0.286726
 O        -3.453489        -0.450202        -0.844907
 C        -3.561673         1.311474         0.817110
 C        -4.919623         1.080236         1.354681
 C        -5.142466         0.531077         2.729115
 O        -4.371048        -0.122211         3.401107
 H         1.932532        -0.004468        -0.231464
 H         1.636395         1.177835         1.033528
 H         1.196314        -0.463143         1.454049
 H        -2.757101        -0.900239         1.003045
 H        -2.678642        -0.671277        -1.428805
 H        -3.058812         1.670813         1.737473
 H        -3.648557         2.063750         0.075892
 H        -5.415056         2.037908         1.296826
 H        -5.624756         0.456361         0.711090
 H        -6.192217         0.660718         3.070015
