19
Iteration:  1057
 C         1.459497        -0.146189        -0.416594
 C         0.038371         0.009217        -0.094817
 C        -1.193950        -0.094480        -0.003641
 C        -2.607626         0.093164         0.149157
 O        -2.900344         1.361771        -0.568415
 C        -3.064691         0.254630         1.587130
 C        -4.513469         0.487451         1.621186
 C        -5.267770         0.116175         2.907058
 O        -6.310947         0.581764         3.334721
 H         1.927171        -0.715342         0.449964
 H         1.558408        -0.666094        -1.345956
 H         1.999500         0.832926        -0.529016
 H        -3.186600        -0.659809        -0.308186
 H        -2.492884         1.352708        -1.471204
 H        -2.568717        -0.468390         2.245200
 H        -2.497946         1.185236         1.917581
 H        -4.954285         1.539717         1.491084
 H        -5.061111         0.035793         0.850191
 H        -4.590126        -0.414402         3.626977
