19
Iteration:   919charge 0 multiplicity 1
 C         1.563903        -0.337307        -0.407293
 C         0.169458        -0.204282        -0.108989
 C        -0.996189         0.183131         0.090266
 C        -2.601364         0.232434         0.087472
 O        -3.115030         1.443462        -0.654240
 C        -3.172636         0.143694         1.584991
 C        -4.693005         0.551037         1.554569
 C        -5.217669         0.609561         2.964210
 O        -6.269885         0.160228         3.362673
 H         2.143853        -0.565283         0.539161
 H         1.766085        -1.139638        -1.192119
 H         2.007698         0.570641        -0.866196
 H        -3.038828        -0.762163        -0.280099
 H        -2.284265         1.601143        -1.068788
 H        -2.955511        -0.733181         2.256565
 H        -2.711449         0.885164         2.343346
 H        -4.878880         1.477118         1.109561
 H        -5.108492        -0.416607         1.106292
 H        -4.459477         1.038485         3.709934
