19
Iteration:   434
 C         1.447329        -0.314249        -0.486697
 C         0.038202        -0.199445        -0.151349
 C        -1.081486         0.061447         0.245414
 C        -2.526124         0.198161         0.263514
 O        -2.967769         1.242602        -0.774686
 C        -3.126693         0.536552         1.626875
 C        -4.675865         0.688280         1.555787
 C        -5.299433         0.678240         2.955086
 O        -6.126916        -0.141285         3.297271
 H         2.026714         0.164009         0.242669
 H         1.727307        -1.400505        -0.490173
 H         1.661436         0.155659        -1.422158
 H        -2.906491        -0.854597        -0.042958
 H        -2.399890         2.003575        -0.567366
 H        -2.850004        -0.304999         2.319176
 H        -2.713309         1.535414         1.875282
 H        -5.019171         1.672668         1.088176
 H        -5.185623        -0.138412         0.930727
 H        -5.171559         1.488090         3.773862
