19
Iteration:  1403
 C         1.458518         0.029618         0.067536
 C        -0.093530        -0.087626         0.050507
 C        -1.295384        -0.089227        -0.133899
 C        -2.691687         0.226512        -0.189696
 O        -2.923782         1.441918        -0.704352
 C        -3.205071        -0.053395         1.288806
 C        -4.819764         0.031383         1.496779
 C        -5.133482         0.082849         2.993554
 O        -5.744817         1.020442         3.541921
 H         1.925022        -0.970415         0.252055
 H         1.689746         0.400483        -0.942160
 H         1.921090         0.697584         0.835136
 H        -3.293342        -0.401015        -0.850901
 H        -2.326509         2.065808        -0.257183
 H        -3.073064        -1.185142         1.441004
 H        -2.787461         0.730776         1.946019
 H        -5.306346         0.895382         1.051552
 H        -5.061922        -0.811144         0.926261
 H        -4.651948        -0.725882         3.489612
