19
Iteration:  1312charge 0 multiplicity 1
 C         1.310153        -0.074177         0.307362
 C        -0.168857        -0.054256         0.094377
 C        -1.303839         0.073501        -0.267107
 C        -2.727053         0.175259        -0.177285
 O        -3.240610         1.494302        -0.369613
 C        -3.171561        -0.305567         1.101571
 C        -4.538254         0.074004         1.412928
 C        -4.876240         0.189235         2.911082
 O        -5.654663         1.045563         3.374607
 H         1.834665        -0.889056         0.762588
 H         1.791440         0.134450        -0.730987
 H         1.592737         0.797755         0.894764
 H        -3.117073        -0.509195        -0.973732
 H        -3.003532         1.876670        -1.256920
 H        -3.033275        -1.393905         1.055842
 H        -2.559622         0.234000         1.782126
 H        -4.928969         0.983911         1.077246
 H        -5.205959        -0.635086         1.074535
 H        -4.368467        -0.393218         3.820231
