19
Iteration:  3801
 C         1.197997         0.193884         0.389987
 C        -0.229572         0.327195         0.394554
 C        -1.388264        -0.031228         0.355059
 C        -2.880646        -0.140283         0.201255
 O        -3.232661        -0.174368        -1.202170
 C        -3.624508         1.183783         0.772820
 C        -5.036749         0.891590         1.316041
 C        -5.054164         0.386226         2.757086
 O        -4.225074         0.409733         3.631860
 H         1.676551         0.853555        -0.366830
 H         1.621186         0.512113         1.301998
 H         1.531538        -0.836104         0.127919
 H        -3.168213        -1.036348         0.745211
 H        -3.071096        -1.080182        -1.525193
 H        -3.035141         1.543813         1.685504
 H        -3.463039         2.020699         0.032748
 H        -5.631239         1.842554         1.524967
 H        -5.819288         0.361708         0.560717
 H        -6.104050         0.036024         2.971638
