19
Iteration:   959
 C         1.438701        -0.337674        -0.443932
 C         0.066701         0.128246         0.009319
 C        -1.142451         0.032740         0.046938
 C        -2.600206         0.111146         0.126272
 O        -3.073024         1.348636        -0.574664
 C        -3.062355         0.239752         1.578692
 C        -4.491174         0.530830         1.677741
 C        -5.122680         0.401047         3.037143
 O        -6.331558         0.325339         3.145807
 H         1.898351        -0.792586         0.470939
 H         1.220284        -1.058469        -1.172744
 H         2.029566         0.485074        -0.892131
 H        -3.001532        -0.705535        -0.558124
 H        -2.434476         1.624955        -1.292585
 H        -2.794281        -0.658082         2.157824
 H        -2.328822         1.004192         1.995945
 H        -4.714443         1.497902         1.098667
 H        -5.156774        -0.097147         0.972220
 H        -4.330542         0.399804         3.875910
