19
Iteration:  4084
 C         1.230067         0.768972        -0.414070
 C        -0.160021         0.272746         0.119086
 C        -1.180363        -0.216334         0.659988
 C        -2.683010        -0.225863         0.738324
 O        -3.145790        -0.407971        -0.734659
 C        -3.155763         1.094843         1.272957
 C        -4.688893         1.251503         1.327248
 C        -5.475862         0.616005         2.394892
 O        -5.059060        -0.131778         3.281022
 H         1.629218         1.767126        -0.134482
 H         1.914272         0.078434         0.002033
 H         1.205900         0.681842        -1.527794
 H        -3.199455        -0.992479         1.386055
 H        -3.591404        -1.238397        -0.969720
 H        -2.811369         1.099118         2.310198
 H        -2.684144         1.847823         0.691701
 H        -5.045700         2.251849         1.672757
 H        -5.195486         1.135949         0.306918
 H        -6.574443         0.944753         2.522123
