19
Iteration:  1904charge 0 multiplicity 1
 C         1.335932        -0.111969         0.561966
 C        -0.120397        -0.104648         0.169371
 C        -1.300598         0.103459        -0.112164
 C        -2.789338         0.116408        -0.173918
 O        -3.149044         0.984056        -1.398865
 C        -3.419201         0.685745         1.237855
 C        -4.821534         0.163964         1.482945
 C        -5.418571         0.457423         2.816227
 O        -4.840937         0.506173         3.901987
 H         1.988400        -0.480575        -0.295629
 H         1.687213         0.862913         0.852555
 H         1.693356        -0.621782         1.506246
 H        -3.337435        -0.799771        -0.310068
 H        -2.402509         1.641024        -1.443830
 H        -2.656166         0.207843         1.947173
 H        -3.033215         1.730643         1.188027
 H        -5.539645         0.365926         0.617194
 H        -4.624151        -0.963342         1.436770
 H        -6.536040         0.239520         2.831707
