19
Iteration:  2761charge 0 multiplicity 1
 C         1.439696        -0.212208        -0.264387
 C         0.020852        -0.071169         0.152082
 C        -1.147648         0.240508         0.299816
 C        -2.644890         0.121911         0.059296
 O        -3.186842         0.630835        -1.200478
 C        -3.386008         0.748550         1.259534
 C        -4.648534        -0.121891         1.689523
 C        -5.210134         0.193708         3.089698
 O        -5.561826         1.276129         3.549036
 H         2.191083         0.514747         0.125966
 H         1.732713        -1.260979        -0.125369
 H         1.316873        -0.068589        -1.345149
 H        -2.912249        -0.942721         0.121656
 H        -3.065785         1.622235        -1.286254
 H        -2.711355         0.836134         2.139637
 H        -3.626409         1.813843         1.157246
 H        -5.435897        -0.189761         0.919583
 H        -4.185177        -1.112570         1.813857
 H        -5.425281        -0.747730         3.648518
