19
Iteration:  2075
 C         1.451333         0.121036        -0.351854
 C         0.006072         0.013044        -0.093251
 C        -1.142473        -0.166705         0.181791
 C        -2.642688        -0.030813         0.167789
 O        -2.974202         1.101869        -0.537556
 C        -3.216252        -0.000756         1.562012
 C        -4.777068        -0.191094         1.600043
 C        -5.642505         0.594668         2.461729
 O        -5.518520         1.218696         3.478814
 H         1.831970         0.110479        -1.360574
 H         2.027807         0.997815         0.162102
 H         2.088955        -0.670416         0.007711
 H        -2.789749        -0.935430        -0.487196
 H        -2.361279         1.782901        -0.275271
 H        -2.761668        -0.658175         2.305967
 H        -2.847850         0.954206         1.980655
 H        -5.169070        -0.107129         0.566747
 H        -4.878808        -1.337650         1.911945
 H        -6.713987         0.436097         1.973528
