19
Iteration:  1716charge 0 multiplicity 1
 C         1.214197         0.205275         0.625370
 C        -0.095115        -0.074785         0.029327
 C        -1.257671        -0.015005        -0.173762
 C        -2.677378        -0.054041        -0.219475
 O        -3.408896         1.021214        -0.916007
 C        -3.208417         0.092180         1.307909
 C        -4.722480         0.522604         1.314893
 C        -5.281561         0.758489         2.685137
 O        -4.916384         0.283921         3.736462
 H         1.928124        -0.494794         0.306208
 H         1.463187         1.263932         0.432200
 H         1.030710         0.168009         1.686695
 H        -2.974952        -1.022802        -0.553726
 H        -2.933789         1.104918        -1.767714
 H        -3.027575        -0.739130         1.957940
 H        -2.687465         0.828489         1.905772
 H        -4.854118         1.290376         0.568307
 H        -5.257902        -0.286189         0.886306
 H        -6.145090         1.526070         2.790958
