19
Iteration:   535
 C         1.385518        -0.502038        -0.028817
 C        -0.063095        -0.178000        -0.088969
 C        -1.197003         0.178093        -0.038480
 C        -2.690940         0.357766         0.095788
 O        -2.989643         1.448740        -0.874137
 C        -3.141031         0.575623         1.484113
 C        -4.679133         0.650299         1.540171
 C        -5.185143         0.618867         3.004647
 O        -5.853203        -0.290384         3.408231
 H         1.820821        -0.042435         0.870958
 H         1.511706        -1.502848        -0.001329
 H         1.931045        -0.077243        -0.882510
 H        -3.045004        -0.706206        -0.230256
 H        -2.772628         0.940225        -1.707896
 H        -2.680623        -0.216226         2.132623
 H        -2.619180         1.425669         1.774039
 H        -4.758804         1.675637         1.252193
 H        -5.186380        -0.178037         1.066312
 H        -4.897065         1.481806         3.729166
