19
Iteration:  2356
 C         0.941778         0.338210         0.691069
 C        -0.405887         0.206114         0.159173
 C        -1.529263         0.006625        -0.231271
 C        -3.006110        -0.125349        -0.200684
 O        -3.687760         1.182315        -0.232776
 C        -3.240394        -0.778367         1.187875
 C        -4.518833        -0.650690         1.834724
 C        -4.858638         0.838943         2.161744
 O        -4.179712         1.556759         2.866675
 H         1.245559         1.320103         0.313292
 H         0.763948         0.527106         1.780013
 H         1.734230        -0.372577         0.632771
 H        -3.310200        -0.502620        -1.207679
 H        -3.037034         1.836980         0.133601
 H        -2.885951        -1.851678         1.242070
 H        -2.505693        -0.319371         1.897182
 H        -5.410790        -1.039299         1.321462
 H        -4.475306        -0.955910         2.852182
 H        -5.826945         1.291285         1.813346
