19
Iteration:  4221charge 0 multiplicity 1
 C         1.317326         0.290489        -0.558963
 C         0.061288         0.473110         0.057027
 C        -1.152978         0.405927         0.260809
 C        -2.536608        -0.010790         0.882733
 O        -3.445328        -0.689198        -0.178543
 C        -3.201888         1.309621         1.621616
 C        -4.698863         1.422619         1.263113
 C        -5.498911         0.336661         2.117934
 O        -5.167249        -0.276399         3.100684
 H         2.260758         0.609526        -0.118266
 H         1.290741        -0.830023        -0.674129
 H         1.230530         0.908084        -1.429074
 H        -2.276707        -0.748303         1.603294
 H        -3.009342        -0.587801        -1.047505
 H        -3.143105         1.085874         2.703103
 H        -2.473742         2.098009         1.291486
 H        -5.188447         2.428733         1.452632
 H        -4.859109         1.250147         0.246547
 H        -6.516896         0.188111         1.678626
