19
Iteration:  4617
 C         1.335275         0.267111         0.340266
 C        -0.131023         0.140184         0.182114
 C        -1.358836         0.339261        -0.054062
 C        -2.769990        -0.053282         0.247931
 O        -3.453477        -0.222814        -1.078949
 C        -3.377017         1.141203         1.145213
 C        -4.820065         0.962667         1.340359
 C        -5.237438         0.288397         2.674487
 O        -4.641174         0.171192         3.739282
 H         1.754264        -0.444193         1.098755
 H         1.722483         0.070572        -0.619716
 H         1.662104         1.315304         0.695476
 H        -2.794503        -1.135000         0.629826
 H        -2.854312         0.195243        -1.749328
 H        -2.571548         1.166310         1.912348
 H        -3.069262         1.881810         0.364376
 H        -5.336569         1.944861         1.553144
 H        -5.422497         0.533607         0.586095
 H        -6.269592        -0.024699         2.626520
