19
Iteration:  4871charge 0 multiplicity 1
 C         1.285075         0.324580         0.572774
 C        -0.206079         0.257097         0.390118
 C        -1.401429         0.111241         0.138854
 C        -2.842147        -0.060610         0.180034
 O        -3.639834        -0.286771        -0.954895
 C        -3.452486         1.309112         0.909820
 C        -4.876698         0.903962         1.177152
 C        -5.031568         0.202320         2.579593
 O        -4.227182         0.245110         3.506689
 H         1.599356        -0.439645        -0.168965
 H         1.810506         1.216748         0.324193
 H         1.570228        -0.105004         1.532812
 H        -3.039760        -0.827244         0.941217
 H        -3.784953         0.608178        -1.386590
 H        -2.880382         1.408264         1.851868
 H        -3.113093         2.107398         0.281497
 H        -5.527146         1.788142         1.341931
 H        -5.330637         0.229806         0.502675
 H        -6.115991        -0.190054         2.741322
