19
Iteration:  1317
 C         1.319535        -0.048533         0.302863
 C        -0.171266        -0.101923         0.082025
 C        -1.310789         0.092121        -0.297677
 C        -2.716818         0.116552        -0.167529
 O        -3.266521         1.520582        -0.374118
 C        -3.163187        -0.319379         1.118772
 C        -4.552772         0.087389         1.435966
 C        -4.889905         0.222625         2.902483
 O        -5.644062         1.027252         3.379189
 H         1.839227        -0.918499         0.789742
 H         1.806843         0.158587        -0.610261
 H         1.520959         0.847783         0.935582
 H        -3.184834        -0.419656        -0.996843
 H        -2.834735         1.911017        -1.147045
 H        -2.785462        -1.426809         1.112156
 H        -2.561980         0.183934         1.972518
 H        -4.803481         1.120091         0.991603
 H        -5.234057        -0.696139         0.861752
 H        -4.403727        -0.333147         3.667087
