19
Iteration:  4722
 C         1.224160         0.155557         0.341523
 C        -0.225934         0.159782         0.419424
 C        -1.452014         0.225609         0.324801
 C        -2.876842         0.073242         0.139958
 O        -3.209596         0.023722        -1.211918
 C        -3.585083         1.097498         1.034872
 C        -5.076000         0.707951         1.296633
 C        -5.163978         0.330567         2.776921
 O        -4.200378         0.330750         3.496697
 H         1.743972        -0.820293         0.255703
 H         1.579210         0.623098        -0.654701
 H         1.713858         0.790891         1.083238
 H        -3.068738        -0.960734         0.653845
 H        -2.880359        -0.832605        -1.585966
 H        -3.002852         0.896278         1.890997
 H        -3.257820         2.102273         0.749265
 H        -5.811616         1.497530         1.135486
 H        -5.416449        -0.298753         0.959277
 H        -6.154459         0.055922         3.116157
