19
Iteration:  4251
 C         1.312818         0.373384        -0.555017
 C        -0.032774         0.257972        -0.120009
 C        -1.120866         0.155569         0.422261
 C        -2.539370         0.106830         0.980200
 O        -3.414518        -0.422542        -0.036257
 C        -3.173134         1.399948         1.433872
 C        -4.724206         1.346701         1.353375
 C        -5.558265         0.233794         2.019080
 O        -5.124989        -0.315722         3.027178
 H         2.040996         0.655191         0.205016
 H         1.605208        -0.688124        -0.913280
 H         1.307377         0.977812        -1.459817
 H        -2.355242        -0.661778         1.793021
 H        -2.783337        -0.708923        -0.716905
 H        -2.744456         1.571698         2.428854
 H        -2.761946         2.176644         0.760811
 H        -5.128775         2.267567         1.914000
 H        -4.965511         1.510517         0.268430
 H        -6.568063        -0.095169         1.651601
