19
Iteration:  1328
 C         1.289565         0.014042         0.305427
 C        -0.111282        -0.164709         0.022648
 C        -1.237552         0.090141        -0.316649
 C        -2.761328         0.144505        -0.270411
 O        -3.275916         1.539683        -0.387353
 C        -3.109465        -0.367170         1.270663
 C        -4.633850         0.083672         1.435617
 C        -4.877192         0.225816         2.886241
 O        -5.672608         1.039544         3.394679
 H         1.608010        -0.950611         0.792649
 H         1.870468         0.151737        -0.557507
 H         1.436255         0.827136         1.049428
 H        -3.270410        -0.531742        -0.957751
 H        -2.530612         1.977263        -0.886464
 H        -2.966399        -1.524916         1.451128
 H        -2.363659         0.205995         1.956197
 H        -4.606854         1.101716         0.930185
 H        -5.484818        -0.544552         0.908827
 H        -4.256429        -0.514451         3.370565
