19
Iteration:   237charge 0 multiplicity 1
 C         1.555280        -0.214783        -0.058377
 C         0.041470        -0.018944        -0.008739
 C        -1.121571         0.309581        -0.134430
 C        -2.632910         0.187311        -0.088788
 O        -3.302025         1.326899        -0.522147
 C        -3.113145        -0.069225         1.348562
 C        -4.683542        -0.035675         1.562424
 C        -4.973440         0.600079         2.866767
 O        -6.079727         0.649723         3.407043
 H         2.012990         0.222991         0.817830
 H         1.820859        -1.386352        -0.163087
 H         1.898893         0.221263        -1.004638
 H        -3.035811        -0.454702        -0.854931
 H        -2.749638         1.988531        -0.039741
 H        -2.814392        -1.127886         1.949268
 H        -2.574815         0.646751         2.013087
 H        -5.139660         0.615934         0.739668
 H        -5.263738        -0.944564         1.391682
 H        -3.958229         1.257859         3.317800
