19
Iteration:   509charge 0 multiplicity 1
 C         1.407480        -0.542458        -0.165310
 C         0.077279        -0.042517        -0.021378
 C        -1.134419         0.094744         0.033625
 C        -2.596040         0.314767         0.059075
 O        -3.193985         1.351338        -0.818918
 C        -3.068821         0.584880         1.565506
 C        -4.623973         0.756350         1.591151
 C        -5.317541         0.674855         2.924713
 O        -5.917308        -0.302865         3.365323
 H         2.091917        -0.164072         0.571804
 H         1.436695        -1.721495        -0.233747
 H         1.754834        -0.083903        -1.092630
 H        -2.920526        -0.688083        -0.144392
 H        -2.442283         1.596559        -1.427699
 H        -2.901699        -0.351278         2.001279
 H        -2.214455         1.321759         1.943550
 H        -4.825016         1.782878         1.129378
 H        -4.963779        -0.306623         1.118850
 H        -5.201731         1.490431         3.715929
