19
Iteration:  1504
 C         1.511405        -0.302785        -0.260436
 C         0.136946         0.063715        -0.123933
 C        -1.045143         0.321601         0.168148
 C        -2.485051         0.243555         0.149933
 O        -3.097102         1.145258        -0.744039
 C        -3.161028         0.396654         1.552731
 C        -4.690424         0.336627         1.470636
 C        -5.628759        -0.018237         2.697292
 O        -5.814833         0.718577         3.670655
 H         1.556915        -1.418202        -0.484296
 H         1.775887         0.137099        -1.203077
 H         2.269844         0.031496         0.498590
 H        -2.814103        -0.779995        -0.292493
 H        -2.816898         0.721339        -1.579520
 H        -2.758230        -0.434833         2.317024
 H        -2.979169         1.412069         2.036126
 H        -5.189058         1.195883         0.972983
 H        -4.949090        -0.491743         0.860584
 H        -6.183304        -0.912657         2.389368
