19
Iteration:  1988charge 0 multiplicity 1
 C         1.433757        -0.299101        -0.015200
 C        -0.004432         0.052957         0.195916
 C        -1.187448         0.308120         0.191282
 C        -2.654005         0.135772         0.141745
 O        -3.308164         0.911109        -0.926182
 C        -3.348848         0.480515         1.454627
 C        -4.681656         0.042729         1.381599
 C        -5.420067         0.186849         2.629414
 O        -5.178870         0.971305         3.533822
 H         1.673661        -0.548223        -1.034059
 H         2.103964         0.565984         0.260512
 H         1.519181        -1.209481         0.545914
 H        -2.729357        -0.920924        -0.308944
 H        -2.923321         1.788978        -0.881903
 H        -2.759861         0.064840         2.254891
 H        -3.287566         1.570375         1.471557
 H        -5.255862         0.772455         0.822375
 H        -4.827833        -0.885832         0.889289
 H        -6.379087        -0.444365         2.686003
