19
Iteration:   681charge 0 multiplicity 1
 C         1.221325        -0.592355         0.401018
 C        -0.129137        -0.186929        -0.044673
 C        -1.230975         0.237299        -0.205229
 C        -2.622485         0.402890        -0.251849
 O        -3.147318         1.594993        -0.812879
 C        -3.209545         0.368040         1.251867
 C        -4.766064         0.389115         1.445419
 C        -4.966139         0.644654         2.899126
 O        -5.548876        -0.143152         3.616093
 H         1.311155        -0.260064         1.418383
 H         1.490476        -1.668212         0.312224
 H         1.942157        -0.088140        -0.197405
 H        -3.246620        -0.477225        -0.659149
 H        -3.065982         2.311596        -0.187654
 H        -2.559132        -0.338662         1.922744
 H        -2.698400         1.290427         1.562663
 H        -4.772307         1.368554         0.902010
 H        -5.160636        -0.483347         0.986733
 H        -4.689470         1.704839         3.304521
