19
Iteration:   147charge 0 multiplicity 1
 C         1.394720         0.094464         0.189404
 C        -0.060612        -0.043797        -0.158212
 C        -1.256155        -0.161715        -0.348329
 C        -2.726170         0.047623        -0.195204
 O        -2.974166         1.490644        -0.355997
 C        -3.092915        -0.200372         1.275497
 C        -4.677088         0.001305         1.567092
 C        -4.993804         0.701001         2.847087
 O        -6.000355         0.644946         3.534803
 H         1.630028         0.588538         1.172450
 H         1.988522        -0.849209         0.177329
 H         1.874525         0.738034        -0.579260
 H        -3.333642        -0.573441        -0.836690
 H        -2.700990         1.879574        -1.240578
 H        -2.803204        -1.306416         1.393238
 H        -2.652786         0.614652         1.738569
 H        -5.024540         0.688959         0.783975
 H        -5.353780        -0.915295         1.498451
 H        -4.122434         1.462259         3.089101
