19
Iteration:  4694charge 0 multiplicity 1
 C         1.313210         0.089638         0.466962
 C        -0.123752         0.199753         0.123219
 C        -1.358226         0.350078         0.147505
 C        -2.765067         0.050736         0.197669
 O        -3.380047         0.014613        -1.103822
 C        -3.606445         1.079037         1.008236
 C        -5.023662         0.636689         1.324498
 C        -5.244167         0.394652         2.806824
 O        -4.295130         0.251739         3.552505
 H         1.636055        -0.907321         0.853511
 H         1.918119         0.397088        -0.362651
 H         1.421953         0.844484         1.304990
 H        -2.761659        -0.917266         0.702198
 H        -2.674958        -0.388830        -1.686087
 H        -2.896170         1.209093         1.882694
 H        -3.527010         1.865175         0.243002
 H        -5.713018         1.488095         1.077954
 H        -5.557197        -0.203400         0.848625
 H        -6.333516         0.464963         3.226228
