19
Iteration:    49
 C         1.573266        -0.079759        -0.089361
 C         0.078543         0.043440         0.086539
 C        -1.148994         0.064762         0.011426
 C        -2.643708         0.056414        -0.061626
 O        -2.949475         1.395652        -0.656586
 C        -3.364315        -0.088664         1.257478
 C        -4.881703         0.293757         1.432512
 C        -5.051021         0.717670         2.895161
 O        -5.938047         0.354878         3.662021
 H         2.194021         0.265429         0.798548
 H         1.879807        -1.103829        -0.364134
 H         1.869967         0.546158        -0.981511
 H        -3.065393        -0.768721        -0.791849
 H        -3.205162         1.160699        -1.583858
 H        -3.361182        -1.221946         1.511535
 H        -2.812252         0.570110         1.887805
 H        -5.195902         1.186687         0.781768
 H        -5.599756        -0.566299         1.200502
 H        -4.274686         1.589985         3.262006
