19
Iteration:   565charge 0 multiplicity 1
 C         1.405139        -0.428304         0.110825
 C        -0.044206        -0.274916        -0.058462
 C        -1.230006        -0.067378        -0.019564
 C        -2.723464         0.349435        -0.070871
 O        -2.996082         1.578292        -0.798762
 C        -3.222479         0.702883         1.285506
 C        -4.758903         0.633282         1.472721
 C        -5.009150         0.518830         3.025548
 O        -5.811356        -0.269398         3.527504
 H         1.688376         0.005246         1.058584
 H         1.639522        -1.553407         0.148210
 H         2.012230         0.001044        -0.707249
 H        -3.120188        -0.516972        -0.497309
 H        -2.967221         1.326047        -1.728323
 H        -2.735766         0.038974         1.936206
 H        -2.832910         1.701985         1.657796
 H        -5.229692         1.636658         1.191342
 H        -5.145408        -0.337483         0.936073
 H        -4.421261         1.287644         3.572564
