19
Iteration:  4245charge 0 multiplicity 1
 C         1.330301         0.341027        -0.595115
 C        -0.022867         0.326510        -0.040905
 C        -1.154901         0.138000         0.367648
 C        -2.562977         0.147693         0.900464
 O        -3.369888        -0.460670        -0.022331
 C        -3.182673         1.356786         1.481432
 C        -4.712523         1.319482         1.376996
 C        -5.558834         0.242559         2.014479
 O        -5.124536        -0.282740         3.027918
 H         2.120819         0.658789         0.117592
 H         1.519084        -0.690318        -0.758091
 H         1.411257         1.045215        -1.446397
 H        -2.493187        -0.501787         1.770732
 H        -2.991902        -0.800500        -0.871021
 H        -2.875133         1.416926         2.540845
 H        -2.822895         2.235955         0.918442
 H        -5.014677         2.265861         1.805757
 H        -4.990314         1.426189         0.353721
 H        -6.590656         0.056279         1.610111
