19
Iteration:  4104charge 0 multiplicity 1
 C         1.170635         0.683911        -0.490738
 C         0.030933         0.264239         0.222731
 C        -1.102261        -0.153572         0.550774
 C        -2.554524        -0.201825         0.632139
 O        -3.235865        -0.375954        -0.610116
 C        -3.093380         1.127474         1.296984
 C        -4.624428         1.278084         1.387406
 C        -5.603593         0.602945         2.405740
 O        -5.231680        -0.169802         3.295339
 H         1.433556         1.706470        -0.148092
 H         2.051921         0.141229        -0.315513
 H         0.860556         0.799746        -1.546690
 H        -2.867094        -1.104769         1.210317
 H        -3.443544        -1.344715        -0.725217
 H        -2.609611         1.360616         2.238162
 H        -2.857965         1.839190         0.540746
 H        -4.985951         2.306563         1.238356
 H        -5.029630         0.777867         0.416000
 H        -6.753423         0.719889         2.260389
