19
Iteration:  4377charge 0 multiplicity 1
 C         1.225350         0.337459        -0.344059
 C        -0.178613         0.231304        -0.064952
 C        -1.298941         0.005753         0.376993
 C        -2.595264         0.169992         0.889741
 O        -3.441942        -0.488281        -0.089593
 C        -3.186266         1.605216         1.289938
 C        -4.778789         1.584455         1.445668
 C        -5.334098         0.279763         2.159819
 O        -4.803402        -0.566902         2.834458
 H         1.586656         0.449076         0.700734
 H         1.514536        -0.564356        -0.770284
 H         1.668473         1.211037        -0.936957
 H        -2.619115        -0.290081         1.862462
 H        -3.139414        -1.234614        -0.677639
 H        -2.773359         1.928264         2.249235
 H        -2.941303         2.376917         0.566265
 H        -5.050423         2.590403         1.888591
 H        -5.148090         1.515465         0.379908
 H        -6.417251         0.005482         1.960940
