19
Iteration:  4354charge 0 multiplicity 1
 C         1.208060         0.296811        -0.418813
 C        -0.225265         0.343136         0.096448
 C        -1.317356         0.199738         0.599023
 C        -2.748010         0.038421         0.971421
 O        -3.527484        -0.504639        -0.127691
 C        -3.195105         1.443875         1.277727
 C        -4.669079         1.502790         1.466746
 C        -5.257471         0.263920         1.954934
 O        -4.694073        -0.415999         2.765186
 H         2.046198         0.518761         0.273863
 H         1.274586        -0.600264        -0.993635
 H         1.324662         1.086934        -1.225763
 H        -2.710732        -0.544789         1.867864
 H        -3.119236        -1.269472        -0.554940
 H        -2.541458         1.812886         2.084269
 H        -2.927634         2.004733         0.373233
 H        -4.821073         2.189342         2.371112
 H        -5.125657         1.987718         0.609991
 H        -6.410097         0.158546         1.805848
