19
Iteration:   140charge 0 multiplicity 1
 C         1.389147         0.119590         0.180791
 C        -0.036072        -0.058639        -0.154013
 C        -1.250131        -0.213569        -0.343272
 C        -2.695038         0.082681        -0.225205
 O        -2.992687         1.503048        -0.334038
 C        -3.141529        -0.213230         1.297451
 C        -4.689277        -0.018117         1.573405
 C        -4.961011         0.732790         2.853635
 O        -5.988621         0.623335         3.511629
 H         1.456470         0.570285         1.160651
 H         1.941837        -0.921989         0.147888
 H         1.864108         0.747321        -0.582711
 H        -3.207594        -0.525767        -1.086528
 H        -2.989422         1.712996        -1.287752
 H        -2.663673        -1.161858         1.707223
 H        -2.653837         0.535869         1.995915
 H        -4.950069         0.886002         0.847866
 H        -5.408456        -0.776123         1.313758
 H        -4.114941         1.490540         2.934535
