19
Iteration:  1024charge 0 multiplicity 1
 C         1.652614        -0.100547        -0.365929
 C         0.158102        -0.339969        -0.389679
 C        -1.107367        -0.065121        -0.112015
 C        -2.575278         0.146671         0.134641
 O        -3.095539         1.398753        -0.484254
 C        -3.064280         0.328043         1.669348
 C        -4.533740         0.606884         1.753504
 C        -5.281629         0.211089         2.959455
 O        -6.426575         0.497967         3.268848
 H         2.117283        -0.529090         0.591500
 H         2.259115        -0.620301        -1.082514
 H         1.830753         1.006967        -0.330788
 H        -3.075282        -0.813989        -0.246833
 H        -2.690099         1.363000        -1.352393
 H        -2.897222        -0.631418         2.183165
 H        -2.553451         1.299306         1.960621
 H        -5.026989         1.553043         1.215019
 H        -4.886598        -0.283919         1.195001
 H        -4.753585        -0.377524         3.696979
