19
Iteration:   832
 C         1.416939        -0.218152        -0.157982
 C        -0.065200        -0.314891         0.006713
 C        -1.286367        -0.232373        -0.004061
 C        -2.696381         0.290393        -0.017961
 O        -2.873488         1.696051        -0.462488
 C        -3.170902         0.302775         1.463151
 C        -4.692463         0.330764         1.389862
 C        -5.314682         0.773566         2.709103
 O        -5.746848         0.009025         3.548267
 H         1.968813        -0.158651         0.830935
 H         1.754768        -1.159051        -0.650876
 H         1.669323         0.690036        -0.741327
 H        -3.366322        -0.326172        -0.713832
 H        -2.368340         1.608488        -1.266750
 H        -2.870276        -0.697657         1.913789
 H        -2.806295         1.267848         1.824316
 H        -5.142273         0.925246         0.567868
 H        -5.193959        -0.690692         1.252519
 H        -5.034808         1.820521         3.136471
