19
Iteration:  2957
 C         1.379120        -0.041223         0.146565
 C        -0.113430         0.340462        -0.046886
 C        -1.320876         0.331631        -0.146307
 C        -2.755822        -0.104707        -0.006430
 O        -3.722880         0.628789        -0.629678
 C        -3.001228        -0.087723         1.492532
 C        -4.464752        -0.436918         1.844808
 C        -5.296790         0.624555         2.523153
 O        -5.028106         1.626957         3.169352
 H         1.696055        -0.232867         1.233813
 H         1.470225        -1.045982        -0.294213
 H         2.254188         0.570880        -0.177184
 H        -2.764499        -1.065997        -0.577061
 H        -3.649451         1.568401        -0.387868
 H        -2.238254        -0.829567         1.767780
 H        -2.912867         0.847857         2.027395
 H        -5.122711        -0.714310         1.095472
 H        -4.493064        -1.179678         2.672785
 H        -6.358731         0.266566         2.472520
