19
Iteration:   163charge 0 multiplicity 1
 C         1.353917         0.067222         0.136325
 C        -0.076193        -0.021798        -0.107351
 C        -1.254258        -0.053328        -0.315391
 C        -2.716283         0.094238        -0.186503
 O        -2.972880         1.460702        -0.450978
 C        -3.138634        -0.188320         1.264661
 C        -4.604616        -0.036228         1.539890
 C        -4.983958         0.732611         2.898828
 O        -6.038938         0.647645         3.532059
 H         1.409994         0.490426         1.130416
 H         1.766267        -1.008023         0.147652
 H         1.901740         0.649183        -0.614150
 H        -3.242716        -0.547271        -1.034947
 H        -2.077193         1.674775        -0.816433
 H        -2.859525        -1.199842         1.576435
 H        -2.470412         0.279693         2.094309
 H        -5.294108         0.319478         0.678957
 H        -4.962263        -1.047985         1.669340
 H        -3.982730         1.292070         3.283195
