19
Iteration:  3991
 C         1.312628         0.496344         0.270014
 C        -0.138190         0.217995         0.238406
 C        -1.318032         0.126033         0.141496
 C        -2.724459        -0.010616         0.543015
 O        -3.678798        -0.502491        -0.673902
 C        -3.330838         1.330552         0.888710
 C        -4.733245         1.200548         1.337235
 C        -5.175740         0.415326         2.458091
 O        -4.586156        -0.157148         3.338965
 H         1.486092         1.550221         0.215251
 H         1.828622         0.150493         1.211880
 H         1.767663         0.113662        -0.603758
 H        -2.826718        -0.856175         1.198843
 H        -2.948825        -1.101546        -0.939154
 H        -2.730530         2.064485         1.439975
 H        -3.267359         1.747980        -0.151808
 H        -5.204444         2.183612         1.395556
 H        -5.304277         0.531280         0.623380
 H        -6.269924         0.541345         2.624363
