19
Iteration:  1062
 C         1.440175        -0.145458        -0.412673
 C        -0.001013         0.035078        -0.062881
 C        -1.150971        -0.056731         0.046106
 C        -2.661541         0.073621         0.127860
 O        -2.870433         1.357363        -0.593291
 C        -3.076013         0.259655         1.580102
 C        -4.534753         0.489271         1.650571
 C        -5.233560         0.119296         2.916393
 O        -6.286075         0.588125         3.322377
 H         1.888015        -0.722237         0.355110
 H         1.477064        -0.686187        -1.409861
 H         2.027788         0.738353        -0.571026
 H        -3.303991        -0.718982        -0.503737
 H        -2.457945         1.346414        -1.468430
 H        -2.719860        -0.481691         2.332179
 H        -2.495150         1.082282         1.959644
 H        -4.744859         1.505184         1.439206
 H        -5.046520        -0.143770         0.749080
 H        -4.549963        -0.580607         3.491342
