19
Iteration:  1132charge 0 multiplicity 1
 C         1.571887        -0.156856        -0.318872
 C         0.164840        -0.117104        -0.150832
 C        -1.002979         0.096739         0.016480
 C        -2.456950         0.170296         0.000131
 O        -2.979445         1.282452        -0.652580
 C        -3.303386         0.247944         1.479603
 C        -4.838439         0.380758         1.480031
 C        -5.364195         0.073165         2.934226
 O        -6.107349         0.745829         3.627747
 H         2.003008        -0.902819         0.437325
 H         1.798100        -0.462876        -1.340026
 H         2.055652         0.855122        -0.178352
 H        -2.766608        -0.861099        -0.495089
 H        -2.527812         2.104809        -0.458914
 H        -2.895931        -0.716268         1.872219
 H        -2.795265         0.928392         2.228509
 H        -5.433938         1.386368         1.158444
 H        -5.322974        -0.432434         0.860875
 H        -5.008664        -0.923857         3.204954
