19
Iteration:  1082
 C         1.358735        -0.181039        -0.438641
 C         0.029374         0.091751         0.026754
 C        -1.214465        -0.032178         0.205163
 C        -2.550984         0.177391         0.120219
 O        -2.874055         1.310032        -0.671490
 C        -3.147439         0.202334         1.461234
 C        -4.584034         0.529326         1.596146
 C        -5.175602         0.086437         2.930966
 O        -6.190826         0.618721         3.360441
 H         1.884291        -0.796517         0.298044
 H         1.331539        -0.607654        -1.435756
 H         1.895585         0.754355        -0.547202
 H        -2.980541        -0.759608        -0.357784
 H        -2.232175         1.410555        -1.435642
 H        -2.829483        -0.759459         1.838573
 H        -2.508650         0.826486         2.120359
 H        -5.167238         1.359850         1.370963
 H        -5.248022        -0.195558         1.054732
 H        -4.729896        -0.811201         3.432669
