19
Iteration:  2177
 C         1.395952         0.315770        -0.333808
 C        -0.006864         0.207801         0.069973
 C        -1.174972        -0.015812         0.308191
 C        -2.682617        -0.159707         0.285552
 O        -3.085272         1.098271        -0.360580
 C        -3.395646        -0.587274         1.614783
 C        -4.975449        -0.321267         1.512876
 C        -5.630416         0.645152         2.485238
 O        -4.877670         1.484388         2.961076
 H         1.685059         0.577678        -1.403821
 H         2.051615         0.940846         0.199788
 H         1.875652        -0.716909        -0.313231
 H        -2.931473        -0.829590        -0.600653
 H        -3.031079         1.955843         0.163976
 H        -3.231286        -1.674812         1.655101
 H        -2.978010        -0.069120         2.524117
 H        -5.178341        -0.086733         0.450223
 H        -5.476268        -1.284739         1.829037
 H        -6.734266         0.635179         2.750379
