19
Iteration:  2572
 C         1.156728         0.655661         0.046242
 C        -0.137624         0.071164        -0.001791
 C        -1.317166        -0.295767         0.052580
 C        -2.748574        -0.296076         0.038437
 O        -3.187364         0.917336        -0.669838
 C        -3.387606        -0.502702         1.498707
 C        -4.903042        -0.130551         1.539498
 C        -5.353718         0.850135         2.552036
 O        -4.625270         1.302892         3.420527
 H         1.261885         1.786735         0.057688
 H         1.836568         0.407027         0.845373
 H         1.684452         0.350872        -0.919072
 H        -3.199363        -1.053960        -0.641259
 H        -2.426462         1.468476        -0.884026
 H        -3.056216        -1.421462         2.052493
 H        -2.768322         0.117360         2.166184
 H        -5.255667         0.299910         0.628649
 H        -5.330975        -1.058602         1.720116
 H        -6.446853         1.120315         2.431645
