19
Iteration:  2498
 C         1.141179         0.732429        -0.046562
 C        -0.183115         0.271827         0.144131
 C        -1.320552        -0.164045         0.399723
 C        -2.740338        -0.377297         0.154178
 O        -3.218879         0.882418        -0.532147
 C        -3.699672        -0.711837         1.306802
 C        -5.111956        -0.096527         1.398997
 C        -5.156690         0.869719         2.516420
 O        -4.247216         1.307138         3.220463
 H         1.240902         1.848853        -0.302587
 H         1.821448         0.583116         0.860312
 H         1.767986         0.139060        -0.791680
 H        -2.811746        -1.243446        -0.545473
 H        -2.439140         1.202288        -1.026290
 H        -3.770917        -1.807806         1.322149
 H        -3.090904        -0.656347         2.236629
 H        -5.223958         0.335063         0.353403
 H        -5.968159        -0.887400         1.713002
 H        -6.197400         0.935734         2.865039
