19
Iteration:  2003charge 0 multiplicity 1
 C         1.398526        -0.261244        -0.078497
 C         0.011972         0.005177         0.120561
 C        -1.132892         0.323949         0.279225
 C        -2.592359         0.122432         0.081182
 O        -3.283853         0.924490        -0.831353
 C        -3.179338         0.431059         1.434056
 C        -4.785184         0.032775         1.402480
 C        -5.587623         0.217803         2.630753
 O        -5.216426         1.021091         3.491633
 H         1.545930        -0.332160        -1.213765
 H         1.985997         0.583276         0.234458
 H         1.984510        -1.117988         0.370471
 H        -2.938327        -0.909453        -0.019713
 H        -2.874735         1.804289        -0.808655
 H        -2.700355        -0.164660         2.271112
 H        -2.985014         1.457934         1.810547
 H        -5.249648         0.443721         0.456499
 H        -4.873047        -1.110128         1.282639
 H        -6.501112        -0.476017         2.792758
