19
Iteration:   269
 C         1.424619        -0.265481        -0.141462
 C         0.042706         0.175108        -0.172723
 C        -1.144779         0.165766        -0.028842
 C        -2.614691         0.197778         0.056831
 O        -3.244208         1.348152        -0.576891
 C        -2.955296        -0.124667         1.497325
 C        -4.544286         0.113973         1.549514
 C        -5.074737         0.714895         2.924607
 O        -6.180773         0.506224         3.339568
 H         1.959379         0.059818         0.725052
 H         1.373714        -1.428731        -0.080198
 H         2.014157         0.065644        -0.979462
 H        -2.855702        -0.620643        -0.626412
 H        -2.508841         1.940009        -0.842602
 H        -2.927698        -1.311670         1.660828
 H        -2.593001         0.610049         2.264772
 H        -4.944321         0.733816         0.782313
 H        -5.072316        -0.848419         1.442959
 H        -4.294301         1.170454         3.402345
