19
Iteration:  2010
 C         1.457687        -0.227825        -0.132864
 C         0.016725        -0.022827         0.119517
 C        -1.167738         0.288053         0.245535
 C        -2.532800         0.138038         0.141620
 O        -3.267865         0.944532        -0.847929
 C        -3.206595         0.394149         1.521360
 C        -4.786677        -0.004730         1.352869
 C        -5.626361         0.246829         2.675456
 O        -5.257005         1.039700         3.489371
 H         1.697647        -0.312504        -1.180647
 H         1.964644         0.742056         0.141125
 H         1.733897        -1.182914         0.303655
 H        -2.778528        -0.960381        -0.212949
 H        -2.860923         1.849352        -0.788941
 H        -2.649132        -0.301336         2.131088
 H        -2.999166         1.433301         1.819459
 H        -5.189318         0.331366         0.413549
 H        -4.780034        -1.070155         1.359025
 H        -6.606437        -0.245391         2.849716
