19
Iteration:  2608charge 0 multiplicity 1
 C         1.255975         0.444459         0.135031
 C        -0.131264         0.082697        -0.092271
 C        -1.283511        -0.232331        -0.052225
 C        -2.756798        -0.184744        -0.013882
 O        -3.229554         0.883701        -0.796120
 C        -3.252776        -0.134771         1.429402
 C        -4.799097        -0.259128         1.680095
 C        -5.418388         0.773327         2.582538
 O        -4.815260         1.262930         3.527845
 H         1.345152         1.572742         0.269507
 H         1.713892        -0.237280         0.923327
 H         1.771187         0.154590        -0.816147
 H        -3.080057        -1.085342        -0.524889
 H        -2.770245         1.702716        -0.516616
 H        -2.878871        -0.938561         2.003068
 H        -2.950388         0.854886         1.636551
 H        -5.402103        -0.494595         0.839310
 H        -4.953370        -1.169026         2.269071
 H        -6.446800         1.184551         2.355084
