19
Iteration:  1516
 C         1.498357        -0.312164        -0.355491
 C         0.144553         0.020479        -0.034119
 C        -1.045904         0.394900         0.183324
 C        -2.516298         0.214290         0.189291
 O        -3.120722         1.119961        -0.814045
 C        -3.149505         0.416324         1.620641
 C        -4.712349         0.274934         1.452733
 C        -5.652527         0.095792         2.612055
 O        -5.814389         0.649428         3.706617
 H         1.680726        -1.407411        -0.421594
 H         1.927800         0.196238        -1.189724
 H         2.083578        -0.013097         0.535856
 H        -2.642869        -0.910220        -0.020068
 H        -2.661258         1.202357        -1.691433
 H        -2.611351        -0.310314         2.365780
 H        -2.781597         1.441702         1.867016
 H        -4.821474         1.274767         1.020361
 H        -4.907260        -0.404902         0.684566
 H        -6.132213        -0.865276         2.737358
