19
Iteration:    42
 C         1.498697        -0.081615        -0.082150
 C         0.096120         0.008638         0.036812
 C        -1.114561         0.080915         0.033084
 C        -2.603247         0.109365        -0.060788
 O        -2.959964         1.381076        -0.688198
 C        -3.364774        -0.087226         1.255220
 C        -4.919788         0.279331         1.437800
 C        -5.042981         0.747876         2.935731
 O        -5.944320         0.319908         3.641943
 H         2.018159         0.246651         0.771284
 H         1.796439        -1.180117        -0.331319
 H         1.732058         0.576437        -0.892661
 H        -2.848044        -0.730900        -0.713476
 H        -2.964533         1.140512        -1.652097
 H        -3.071364        -0.967014         1.848475
 H        -2.854235         0.552700         2.152874
 H        -5.041806         1.192954         0.853475
 H        -5.667817        -0.413693         1.173052
 H        -4.253174         1.435428         3.050729
