19
Iteration:  3089charge 0 multiplicity 1
 C         1.048723         0.791052        -0.298672
 C        -0.167251         0.002527         0.028781
 C        -1.279419        -0.398839         0.175087
 C        -2.758788        -0.307843         0.263275
 O        -3.263331         1.078381         0.186774
 C        -3.224354        -0.836616         1.624378
 C        -4.759528        -0.551479         1.771304
 C        -5.214623         0.837451         2.148378
 O        -4.717660         1.858516         2.588518
 H         1.886929         0.378712         0.459287
 H         1.343447         0.512927        -1.360073
 H         0.901912         1.936156        -0.302058
 H        -3.227821        -0.759316        -0.608891
 H        -3.563675         1.200403        -0.734277
 H        -2.698195        -1.813109         1.816201
 H        -2.829161        -0.124589         2.367326
 H        -5.425165        -0.797307         1.005520
 H        -5.143398        -1.037278         2.626818
 H        -6.274423         0.862980         1.954429
