19
Iteration:   613
 C         1.202183        -0.477631         0.278988
 C        -0.224847        -0.203219         0.090546
 C        -1.366712         0.131818        -0.157315
 C        -2.787308         0.388213        -0.249951
 O        -2.847479         1.614104        -0.970597
 C        -3.138153         0.559137         1.249978
 C        -4.626301         0.473181         1.557971
 C        -4.979272         0.518165         3.041969
 O        -5.746495        -0.242871         3.629779
 H         1.529174        -0.020985         1.240704
 H         1.495554        -1.448508         0.193125
 H         1.682143         0.051615        -0.545912
 H        -3.059580        -0.567200        -0.820453
 H        -2.095712         1.708327        -1.599681
 H        -2.656309        -0.319755         1.810527
 H        -2.732098         1.454185         1.626179
 H        -5.222800         1.353758         1.204730
 H        -5.069453        -0.509400         1.335349
 H        -4.351831         1.424503         3.435255
