19
Iteration:   583charge 0 multiplicity 1
 C         1.412932        -0.444181         0.188190
 C        -0.097577        -0.258796         0.062093
 C        -1.311224        -0.120598        -0.127115
 C        -2.695628         0.396460        -0.179261
 O        -2.992236         1.657707        -0.905835
 C        -3.251159         0.645729         1.378160
 C        -4.767885         0.547212         1.502870
 C        -4.984825         0.486761         2.953098
 O        -5.749928        -0.229439         3.574912
 H         1.801220         0.053559         1.094514
 H         1.760314        -1.550535         0.153530
 H         1.859399         0.080257        -0.658081
 H        -3.525816        -0.401155        -0.482033
 H        -2.599302         1.624862        -1.777651
 H        -2.762125         0.119180         2.286778
 H        -2.781595         1.694732         1.475775
 H        -5.093821         1.536229         1.215732
 H        -5.232061        -0.361395         1.224553
 H        -4.236496         1.058881         3.596588
