19
Iteration:  1812
 C         1.271657         0.184545         0.794380
 C        -0.240028        -0.088191         0.333912
 C        -1.429325        -0.053421        -0.017208
 C        -2.865898         0.019270        -0.249908
 O        -3.166548         0.832123        -1.361816
 C        -3.477739         0.341562         1.083408
 C        -5.005815         0.652103         1.321558
 C        -5.217764         0.604950         2.882910
 O        -4.383751         0.253957         3.666941
 H         1.992405        -0.298070         0.186270
 H         1.505485         1.335474         0.883315
 H         1.432850        -0.115920         1.833051
 H        -3.168880        -0.915714        -0.755860
 H        -2.739666         1.692324        -1.399107
 H        -3.355320        -0.548225         1.687073
 H        -2.802494         0.948687         1.693183
 H        -5.422832         1.681366         1.138221
 H        -5.801532        -0.063384         0.866627
 H        -6.241184         0.705221         3.353010
