19
Iteration:   645
 C         1.245907        -0.569123         0.405363
 C        -0.093642        -0.092998        -0.015807
 C        -1.317653         0.019314        -0.259136
 C        -2.717733         0.487352        -0.228367
 O        -3.019778         1.658035        -1.038070
 C        -3.165847         0.480828         1.259049
 C        -4.687471         0.438706         1.574825
 C        -5.010661         0.559127         3.033194
 O        -5.674197        -0.204540         3.676275
 H         1.513109        -0.237297         1.448353
 H         1.362750        -1.592616         0.383565
 H         2.032915        -0.088100        -0.204077
 H        -3.111541        -0.305519        -0.819785
 H        -2.162563         2.055409        -1.186883
 H        -2.689285        -0.518570         1.478623
 H        -2.736995         1.182987         1.892185
 H        -5.365547         1.136079         0.990886
 H        -5.162124        -0.551731         1.185960
 H        -4.639459         1.532033         3.557146
