19
Iteration:  2895
 C         1.331689         0.066392         0.057007
 C        -0.149960        -0.041480        -0.030323
 C        -1.333871         0.041292         0.021433
 C        -2.730468        -0.020512        -0.004465
 O        -3.429789         0.931817        -0.835213
 C        -3.175324         0.343412         1.439250
 C        -4.489704        -0.450775         1.893195
 C        -5.295560         0.328174         2.916257
 O        -5.109847         1.530127         3.062652
 H         1.659144         0.379313         1.033418
 H         1.720434        -0.898473        -0.177133
 H         1.700588         0.689608        -0.733554
 H        -2.999569        -1.054621        -0.134576
 H        -3.000923         0.867704        -1.710215
 H        -2.480350         0.180407         2.276579
 H        -3.328765         1.445740         1.418462
 H        -5.166606        -0.789090         1.013900
 H        -4.312715        -1.419360         2.400263
 H        -6.054732        -0.204259         3.624184
