19
Iteration:  3686
 C         1.295088         0.380543         0.327943
 C        -0.167622         0.450200         0.191247
 C        -1.299918        -0.092484        -0.002746
 C        -2.726674        -0.363923         0.100655
 O        -3.504728         0.006907        -1.062898
 C        -3.260347         0.565414         1.273332
 C        -4.734590         0.709138         1.290394
 C        -5.325402         0.709063         2.709617
 O        -4.654060         0.652217         3.697080
 H         1.674526         0.478387        -0.680707
 H         1.621953         1.090905         1.191500
 H         1.363359        -0.670294         0.546214
 H        -3.014739        -1.372936         0.286429
 H        -2.944266        -0.297437        -1.799963
 H        -2.866303         0.270930         2.212564
 H        -2.769433         1.534416         1.116376
 H        -5.428103         1.435199         0.735758
 H        -5.010972        -0.332930         0.985168
 H        -6.451217         0.755682         2.750824
