19
Iteration:  1879charge 0 multiplicity 1
 C         1.138138        -0.004606         0.592371
 C        -0.208163        -0.001536         0.281851
 C        -1.346068        -0.182815        -0.061085
 C        -2.744161         0.167751        -0.194329
 O        -3.147931         0.969960        -1.302758
 C        -3.331950         0.674707         1.194529
 C        -4.870025         0.195497         1.428837
 C        -5.316078         0.460384         2.773992
 O        -4.666561         0.415582         3.804072
 H         1.721085        -0.467612        -0.164104
 H         1.609539         0.976452         0.922989
 H         1.325933        -0.500981         1.521017
 H        -3.401530        -0.694860        -0.311465
 H        -2.493936         1.663711        -1.530106
 H        -2.551194         0.428636         1.903328
 H        -3.207740         1.728143         0.967424
 H        -5.556815         0.732566         0.731502
 H        -4.909724        -0.891422         1.090990
 H        -6.358352         0.881398         2.823507
