19
Iteration:  2329
 C         0.882025         0.313066         0.680211
 C        -0.456651         0.145171         0.216123
 C        -1.516862         0.054739        -0.367336
 C        -3.014209        -0.085578        -0.113001
 O        -3.637799         1.248574        -0.103825
 C        -3.099772        -0.789523         1.181055
 C        -4.432113        -0.715342         1.859008
 C        -4.953992         0.803767         2.170511
 O        -4.247687         1.638301         2.703217
 H         1.296442         1.163596         0.124813
 H         0.936568         0.470701         1.747752
 H         1.585581        -0.563068         0.596667
 H        -3.498135        -0.526348        -0.955983
 H        -3.126393         1.701254         0.624114
 H        -2.952356        -1.830595         0.859568
 H        -2.320216        -0.602840         1.895801
 H        -5.280433        -1.124032         1.354497
 H        -4.380028        -0.962114         2.960436
 H        -5.990375         1.162437         1.833045
