19
Iteration:  3435
 C         1.478049        -0.087661        -0.275550
 C         0.016496        -0.093334         0.099793
 C        -1.179410         0.093231         0.005955
 C        -2.676173         0.181371         0.040374
 O        -3.507697         1.164275        -0.460652
 C        -3.078606         0.072167         1.591988
 C        -4.561404        -0.443850         1.711432
 C        -5.400832         0.298276         2.792433
 O        -5.400379         1.493252         2.977581
 H         1.712832        -0.846546        -1.008705
 H         1.872667         0.920771        -0.652521
 H         2.007352        -0.208687         0.662149
 H        -2.804842        -0.748893        -0.545795
 H        -3.160388         1.956728        -0.892184
 H        -2.549807        -0.720066         2.098955
 H        -2.948365         0.988893         2.182193
 H        -5.082045        -0.508447         0.781412
 H        -4.717285        -1.392355         2.254803
 H        -6.004012        -0.414020         3.419630
