19
Iteration:   762
 C         1.359909        -0.499664         0.111586
 C        -0.007139        -0.009271        -0.003298
 C        -1.241999         0.067993        -0.024221
 C        -2.631311         0.326850        -0.131609
 O        -2.948733         1.686253        -0.641483
 C        -3.347211         0.134863         1.235391
 C        -4.894740         0.339561         1.398182
 C        -5.222975         0.745995         2.798870
 O        -5.505805        -0.027235         3.711405
 H         1.693411        -0.533734         1.166884
 H         1.308080        -1.539042        -0.228545
 H         2.116131         0.072703        -0.480308
 H        -3.043812        -0.500079        -0.843037
 H        -2.314993         1.985885        -1.311332
 H        -3.100699        -0.814746         1.598709
 H        -2.875613         0.983111         1.809396
 H        -5.146752         1.021768         0.671972
 H        -5.379839        -0.577363         1.131111
 H        -5.174921         1.836181         2.936711
