19
Iteration:  3660charge 0 multiplicity 1
 C         1.290357         0.421415         0.163802
 C        -0.128148         0.239659         0.229655
 C        -1.276358         0.019799         0.071735
 C        -2.626078        -0.277282         0.053673
 O        -3.421685         0.073097        -1.114792
 C        -3.205961         0.404435         1.324402
 C        -4.807360         0.517657         1.315070
 C        -5.396610         0.835530         2.719866
 O        -4.815084         0.722027         3.801821
 H         1.515421         0.617901        -0.935361
 H         1.524158         1.318032         0.781594
 H         1.856566        -0.514043         0.472779
 H        -2.772233        -1.391013         0.172192
 H        -3.083414        -0.485610        -1.843695
 H        -2.772744        -0.187108         2.227697
 H        -2.741765         1.426715         1.463016
 H        -5.236699         1.337799         0.719160
 H        -5.289034        -0.342689         0.889804
 H        -6.413516         1.297468         2.703937
