19
Iteration:   377charge 0 multiplicity 1
 C         1.426968        -0.146398        -0.490891
 C         0.022017        -0.121796        -0.116166
 C        -1.173835        -0.184768         0.247594
 C        -2.578720         0.217040         0.110152
 O        -2.737123         1.375450        -0.674459
 C        -3.132139         0.469205         1.580657
 C        -4.652719         0.472211         1.596313
 C        -5.275479         0.628292         2.959827
 O        -6.284780         0.062641         3.375561
 H         2.044855         0.412714         0.177407
 H         1.868055        -1.181447        -0.620335
 H         1.525429         0.267732        -1.469314
 H        -3.101131        -0.782923        -0.160340
 H        -2.617767         0.962188        -1.569318
 H        -2.700121        -0.350869         2.135363
 H        -2.476689         1.303288         2.031484
 H        -5.111536         1.346538         0.964726
 H        -5.138056        -0.515653         1.107920
 H        -4.612615         1.269536         3.719566
