19
Iteration:  2120charge 0 multiplicity 1
 C         1.335938         0.359065        -0.404702
 C         0.027429        -0.175449        -0.011465
 C        -1.155438        -0.234302         0.141445
 C        -2.650973        -0.108087         0.307864
 O        -3.055971         1.108669        -0.296762
 C        -3.271146        -0.137431         1.668884
 C        -4.682701        -0.179381         1.485467
 C        -5.653462         0.586812         2.350697
 O        -5.268533         1.340966         3.243789
 H         1.370248         0.587669        -1.480630
 H         1.578718         1.249303         0.245489
 H         2.152727        -0.383757        -0.158288
 H        -3.113389        -0.907386        -0.358148
 H        -2.475449         1.857291        -0.189188
 H        -2.864914        -1.094827         2.020614
 H        -2.961197         0.543825         2.482649
 H        -5.037978         0.062700         0.472526
 H        -5.202228        -1.202708         1.698967
 H        -6.656398         0.530490         1.841731
