19
Iteration:   268charge 0 multiplicity 1
 C         1.429826        -0.267242        -0.141360
 C         0.040881         0.173514        -0.168334
 C        -1.142313         0.162643        -0.026123
 C        -2.610865         0.201325         0.065010
 O        -3.254091         1.349527        -0.579617
 C        -2.958354        -0.130312         1.487476
 C        -4.538429         0.109940         1.544143
 C        -5.073585         0.711772         2.928278
 O        -6.178048         0.511928         3.341829
 H         1.946052         0.060222         0.734329
 H         1.372963        -1.391482        -0.079500
 H         2.014283         0.055296        -0.970627
 H        -2.878950        -0.588700        -0.657302
 H        -2.528019         1.936866        -0.824907
 H        -2.931110        -1.275273         1.660533
 H        -2.610678         0.627450         2.266265
 H        -4.912044         0.702748         0.766765
 H        -5.091103        -0.864151         1.413991
 H        -4.279042         1.182456         3.401661
