19
Iteration:  2881
 C         1.370248         0.090301        -0.047828
 C        -0.058239        -0.075244         0.065532
 C        -1.257953        -0.150852         0.047727
 C        -2.798233        -0.058531        -0.016306
 O        -3.340583         0.988459        -0.849336
 C        -3.266396         0.384436         1.392739
 C        -4.499588        -0.389097         1.873694
 C        -5.271219         0.320944         2.977274
 O        -5.242444         1.538578         3.150811
 H         1.690254         0.546784         0.901440
 H         1.955304        -0.772551        -0.134032
 H         1.691333         0.792300        -0.798074
 H        -3.221157        -0.963306        -0.446990
 H        -3.360199         0.759176        -1.796318
 H        -2.355434         0.497391         1.988793
 H        -3.652152         1.394710         1.221775
 H        -5.145719        -0.552271         0.912329
 H        -4.103706        -1.432933         2.271250
 H        -5.809892        -0.383180         3.710246
