19
Iteration:  1056
 C         1.461787        -0.144947        -0.413215
 C         0.048610         0.004406        -0.101794
 C        -1.203302        -0.101734        -0.011103
 C        -2.596224         0.098770         0.149879
 O        -2.906911         1.362597        -0.562584
 C        -3.057828         0.258271         1.588280
 C        -4.517983         0.489208         1.617804
 C        -5.270830         0.117686         2.907282
 O        -6.315004         0.579931         3.335661
 H         1.934292        -0.706567         0.442823
 H         1.577726        -0.683840        -1.355303
 H         1.986565         0.844648        -0.515119
 H        -3.164853        -0.664971        -0.275411
 H        -2.492454         1.341733        -1.471664
 H        -2.558334        -0.491572         2.227029
 H        -2.516150         1.195585         1.903058
 H        -4.963116         1.536934         1.495736
 H        -5.063836         0.052261         0.856140
 H        -4.603058        -0.406058         3.658986
