19
Iteration:  3917
 C         1.174122         0.095902         0.451010
 C        -0.224705         0.355783         0.329732
 C        -1.387940         0.480793         0.243406
 C        -2.794384         0.119641         0.432564
 O        -3.407355        -0.675350        -0.659860
 C        -3.647691         1.285960         0.753556
 C        -5.049822         1.163419         1.245578
 C        -5.040591         0.428666         2.598771
 O        -4.069086        -0.052134         3.120373
 H         1.826620         0.952873         0.205734
 H         1.392474        -0.214680         1.503319
 H         1.432540        -0.749323        -0.221114
 H        -2.896265        -0.645010         1.260266
 H        -3.504429         0.008356        -1.368824
 H        -3.067324         1.715671         1.573785
 H        -3.603764         2.035443        -0.061559
 H        -5.323143         2.165196         1.611781
 H        -5.915795         0.724204         0.632502
 H        -6.041771         0.174691         3.008652
