19
Iteration:  4051
 C         1.176123         0.717262        -0.145384
 C        -0.202888         0.183729         0.146499
 C        -1.318182        -0.018542         0.485369
 C        -2.778921        -0.293128         0.654976
 O        -3.188067        -0.425998        -0.766574
 C        -3.199788         1.063802         1.305527
 C        -4.716778         1.300991         1.343263
 C        -5.464948         0.570158         2.459518
 O        -4.704405        -0.041695         3.155168
 H         1.294598         1.804167         0.077913
 H         1.881229         0.144525         0.418072
 H         1.480390         0.499440        -1.215615
 H        -3.008005        -1.251105         1.216833
 H        -3.674694        -1.295008        -0.819859
 H        -2.881351         1.116941         2.352450
 H        -2.779590         1.884034         0.771255
 H        -5.106325         2.342083         1.281339
 H        -5.278613         0.924712         0.405558
 H        -6.573174         0.710500         2.472756
