19
Iteration:   499charge 0 multiplicity 1
 C         1.453755        -0.524857        -0.239817
 C         0.084049        -0.039187         0.020960
 C        -1.151291         0.150835         0.026884
 C        -2.589420         0.249661         0.121202
 O        -3.199251         1.296825        -0.750146
 C        -3.039871         0.549311         1.523328
 C        -4.590721         0.757067         1.569754
 C        -5.328262         0.688771         2.964629
 O        -5.936561        -0.298239         3.331229
 H         2.142998        -0.297693         0.532310
 H         1.412949        -1.677430        -0.270515
 H         1.858118        -0.252141        -1.206826
 H        -3.167914        -0.594595        -0.258418
 H        -2.497732         1.853241        -1.165026
 H        -2.791935        -0.207089         2.191773
 H        -2.504179         1.545160         1.852382
 H        -4.887365         1.657264         0.940408
 H        -5.202437         0.084587         0.826290
 H        -5.282740         1.664221         3.594753
