19
Iteration:  4141charge 0 multiplicity 1
 C         1.352828         0.629804        -0.546571
 C         0.020080         0.173092         0.018531
 C        -1.102761         0.087136         0.414295
 C        -2.498677        -0.072878         0.742399
 O        -3.349892        -0.490793        -0.384234
 C        -3.125706         1.146542         1.466269
 C        -4.653554         1.161293         1.310004
 C        -5.671868         0.554923         2.324796
 O        -5.325901        -0.180123         3.256600
 H         1.706572         1.498364         0.030904
 H         2.107143        -0.205186        -0.587795
 H         1.279068         0.908655        -1.605086
 H        -2.532139        -0.857723         1.542917
 H        -2.747790        -0.626888        -1.146180
 H        -2.700282         1.283867         2.476311
 H        -2.706300         2.035535         0.943602
 H        -4.969149         2.246429         1.444663
 H        -4.757736         0.920938         0.236231
 H        -6.730369         1.047513         2.142946
