19
Iteration:    48
 C         1.564965        -0.085168        -0.088935
 C         0.079602         0.039655         0.080096
 C        -1.141857         0.068526         0.013320
 C        -2.640522         0.060441        -0.059958
 O        -2.950103         1.395465        -0.661300
 C        -3.360366        -0.086165         1.256171
 C        -4.888352         0.292742         1.432842
 C        -5.047263         0.721731         2.901896
 O        -5.941468         0.349151         3.660367
 H         2.185394         0.269505         0.808899
 H         1.858812        -1.073425        -0.353743
 H         1.846973         0.556162        -0.981289
 H        -3.040820        -0.759171        -0.771878
 H        -3.171739         1.146103        -1.582266
 H        -3.331994        -1.194099         1.562599
 H        -2.845261         0.540158         1.892243
 H        -5.178734         1.185650         0.790391
 H        -5.625773        -0.557996         1.191693
 H        -4.252445         1.589906         3.225899
