19
Iteration:  1268
 C         1.377857        -0.162051         0.231969
 C         0.001690         0.123743        -0.044210
 C        -1.179222         0.170201        -0.151626
 C        -2.681097         0.266063        -0.207795
 O        -3.067743         1.506819        -0.527279
 C        -3.281119        -0.278913         1.198934
 C        -4.869458        -0.136486         1.430417
 C        -4.986434         0.203938         2.973033
 O        -5.669116         1.061453         3.515058
 H         1.436940        -1.101195         0.766289
 H         1.967249        -0.259550        -0.749027
 H         1.887115         0.578850         0.844090
 H        -3.121080        -0.307530        -0.979507
 H        -3.419542         1.544001        -1.454605
 H        -2.907187        -1.364134         1.129987
 H        -2.807251         0.139377         2.077723
 H        -5.235655         0.632060         0.785078
 H        -5.271601        -1.013184         1.118011
 H        -4.347950        -0.386127         3.671431
