19
Iteration:  4226
 C         1.317762         0.280205        -0.576657
 C         0.061290         0.481314         0.079050
 C        -1.163822         0.317511         0.262785
 C        -2.515038         0.023051         0.867270
 O        -3.456521        -0.663932        -0.152067
 C        -3.221190         1.361220         1.606977
 C        -4.711313         1.386003         1.294269
 C        -5.472571         0.354602         2.089678
 O        -5.170557        -0.282023         3.084077
 H         2.205025         0.600395         0.015390
 H         1.473900        -0.762743        -0.831956
 H         1.239618         0.887291        -1.532103
 H        -2.185053        -0.785561         1.590701
 H        -2.868803        -0.588058        -0.941053
 H        -3.061219         1.083753         2.656148
 H        -2.661559         2.263179         1.389218
 H        -5.249866         2.271789         1.608143
 H        -4.907368         1.279124         0.164238
 H        -6.508335         0.124199         1.680328
