19
Iteration:  1592charge 0 multiplicity 1
 C         1.435936        -0.080271        -0.315910
 C         0.062501        -0.040572         0.017641
 C        -1.134432         0.072162         0.371832
 C        -2.582384         0.146290         0.250944
 O        -2.961340         1.045261        -0.800650
 C        -3.329782         0.506564         1.496556
 C        -4.918253         0.324056         1.289293
 C        -5.731443         0.243715         2.566716
 O        -5.213433         0.530231         3.630366
 H         1.768678        -1.130303        -0.611765
 H         1.774461         0.729956        -0.997425
 H         1.980152         0.030719         0.669127
 H        -2.931386        -0.920365         0.186725
 H        -2.824608         1.947532        -0.472525
 H        -3.079099        -0.087150         2.456266
 H        -3.337827         1.612549         1.550401
 H        -5.325317         1.053024         0.532301
 H        -5.105350        -0.633637         0.830654
 H        -6.748662        -0.123712         2.639148
