19
Iteration:  4607
 C         1.351334         0.309917         0.280293
 C        -0.094054         0.190272         0.158637
 C        -1.312557         0.194234         0.025800
 C        -2.779871        -0.081334         0.234896
 O        -3.458161        -0.200218        -1.052553
 C        -3.355011         1.064269         1.120926
 C        -4.881264         1.003084         1.451453
 C        -5.303609         0.269221         2.643217
 O        -4.600780         0.211997         3.635347
 H         1.573773        -0.440247         1.064831
 H         1.924819         0.033115        -0.581570
 H         1.712261         1.331506         0.606312
 H        -2.831289        -1.014260         0.874280
 H        -2.888074         0.349935        -1.660496
 H        -2.941600         1.176487         2.146992
 H        -3.185779         2.081950         0.706328
 H        -5.279146         2.042296         1.579588
 H        -5.296839         0.708468         0.545821
 H        -6.344468        -0.152695         2.582522
