19
Iteration:  2086
 C         1.461695         0.196021        -0.381625
 C         0.032570        -0.057747        -0.057848
 C        -1.173612        -0.186347         0.156492
 C        -2.629745        -0.077769         0.188113
 O        -2.975736         1.147337        -0.537317
 C        -3.202953        -0.058548         1.661493
 C        -4.688296        -0.243823         1.635204
 C        -5.718842         0.599019         2.423919
 O        -5.480806         1.249614         3.424218
 H         1.593430         0.289028        -1.463428
 H         1.796317         1.159507         0.154625
 H         1.916075        -0.676746         0.053909
 H        -3.283615        -0.813943        -0.327051
 H        -2.312156         1.811437        -0.294726
 H        -2.731687        -0.895173         2.197711
 H        -2.926503         0.918286         2.086950
 H        -5.030453         0.121326         0.640840
 H        -4.996345        -1.375524         1.564746
 H        -6.702084         0.830747         1.873207
