19
Iteration:  4590charge 0 multiplicity 1
 C         1.365820         0.335985         0.234861
 C        -0.098710         0.317863         0.053277
 C        -1.262114        -0.118731         0.256489
 C        -2.765006        -0.031297         0.263635
 O        -3.437232        -0.147807        -0.969747
 C        -3.377002         1.048538         1.187764
 C        -4.956222         1.060180         1.345928
 C        -5.347941         0.253535         2.628460
 O        -4.549587         0.213978         3.545934
 H         1.677559        -0.268249         1.092933
 H         1.809196         0.097555        -0.800268
 H         1.696361         1.341249         0.337554
 H        -2.989273        -0.979594         0.751055
 H        -3.255480         0.526438        -1.681786
 H        -2.793490         0.900689         2.100610
 H        -2.854538         1.955681         0.865982
 H        -5.206963         2.088783         1.615922
 H        -5.675777         0.873359         0.405739
 H        -6.320628        -0.286650         2.624034
