19
Iteration:    83
 C         1.405273         0.035967        -0.000118
 C        -0.019473        -0.005668         0.020514
 C        -1.228064        -0.064663        -0.065513
 C        -2.581820         0.043721        -0.039271
 O        -2.962777         1.478596        -0.545166
 C        -3.294665        -0.292941         1.240431
 C        -4.738663         0.212328         1.439479
 C        -4.995812         0.789862         2.819024
 O        -5.895165         0.454427         3.557458
 H         1.902460         0.481384         0.899945
 H         1.874183        -1.039433        -0.154387
 H         1.693013         0.703381        -0.846674
 H        -3.002710        -0.655137        -0.937732
 H        -3.874037         1.321810        -0.864370
 H        -2.861048        -1.347595         1.594705
 H        -2.640151         0.210385         2.032285
 H        -4.852771         1.237819         0.860834
 H        -5.589985        -0.485278         1.183633
 H        -4.506833         1.778058         3.244832
