19
Iteration:  4359
 C         1.175327         0.296034        -0.373164
 C        -0.213551         0.346736         0.038879
 C        -1.318315         0.115937         0.544996
 C        -2.722152         0.089476         0.950795
 O        -3.507288        -0.498670        -0.115058
 C        -3.181582         1.505484         1.265049
 C        -4.680832         1.484736         1.476882
 C        -5.303903         0.265252         2.001728
 O        -4.695239        -0.439133         2.772895
 H         2.003134         0.520808         0.291353
 H         1.371733        -0.631437        -0.993896
 H         1.352848         1.091235        -1.100522
 H        -2.694060        -0.558839         1.878959
 H        -2.857527        -1.207704        -0.397921
 H        -2.538726         1.705784         2.134903
 H        -2.887420         2.147251         0.426915
 H        -4.933281         2.179963         2.247426
 H        -5.233375         1.919532         0.596168
 H        -6.409864         0.271947         1.709859
