19
Iteration:   390
 C         1.426640        -0.165044        -0.530977
 C         0.074385        -0.084003        -0.058610
 C        -1.123104        -0.258811         0.185230
 C        -2.526073         0.223125         0.218963
 O        -2.781528         1.357854        -0.763816
 C        -3.141461         0.475477         1.588603
 C        -4.688063         0.525327         1.630250
 C        -5.285024         0.640177         2.990200
 O        -6.284606        -0.002989         3.367685
 H         2.100415         0.295743         0.099801
 H         1.683984        -1.284541        -0.521247
 H         1.544545         0.253079        -1.494053
 H        -3.223406        -0.483986        -0.398738
 H        -2.356194         1.273777        -1.616456
 H        -2.814548        -0.375121         2.354386
 H        -2.972140         1.509035         2.005362
 H        -4.886456         1.508480         1.114607
 H        -5.128318        -0.349647         1.035738
 H        -4.771331         1.437714         3.658500
