19
Iteration:  1672charge 0 multiplicity 1
 C         1.381187         0.135993         0.267887
 C        -0.073797         0.091964         0.138683
 C        -1.225251        -0.155923         0.014802
 C        -2.671931        -0.014345        -0.107529
 O        -3.088785         1.156049        -0.920094
 C        -3.358352         0.178107         1.306294
 C        -4.881404         0.267366         1.244056
 C        -5.446729         0.763868         2.737972
 O        -5.034896         0.319022         3.831344
 H         1.741008        -0.702304        -0.256520
 H         1.679549         1.058828        -0.274841
 H         1.698472         0.167388         1.276614
 H        -3.069635        -0.978510        -0.405539
 H        -2.959853         0.894621        -1.855457
 H        -2.986614        -0.504200         2.022699
 H        -2.882686         1.085258         1.660495
 H        -5.268097         1.073846         0.675683
 H        -5.307713        -0.616886         0.878982
 H        -6.349931         1.461547         2.659167
