19
Iteration:  1591
 C         1.431458        -0.082480        -0.323056
 C         0.062798        -0.034335         0.017965
 C        -1.132974         0.071470         0.369750
 C        -2.579475         0.148427         0.241838
 O        -2.962410         1.040121        -0.789669
 C        -3.323001         0.510217         1.494072
 C        -4.917241         0.326899         1.301425
 C        -5.722606         0.245319         2.562815
 O        -5.225557         0.530696         3.623679
 H         1.787134        -1.156865        -0.607298
 H         1.794310         0.709362        -0.999864
 H         1.985939         0.014760         0.684440
 H        -2.920621        -0.887342         0.208993
 H        -2.853007         1.922062        -0.441612
 H        -3.087100        -0.084302         2.463994
 H        -3.381645         1.619553         1.553155
 H        -5.324280         1.071524         0.541679
 H        -5.095280        -0.644117         0.809538
 H        -6.725346        -0.173534         2.647870
