19
Iteration:  1693charge 0 multiplicity 1
 C         1.409893         0.206870         0.476740
 C        -0.052603        -0.056783         0.030362
 C        -1.298878        -0.055075        -0.139838
 C        -2.780110        -0.006316        -0.134458
 O        -3.203250         1.091817        -0.909500
 C        -3.279669         0.111791         1.313833
 C        -4.827284         0.404245         1.392759
 C        -5.364544         0.773925         2.664076
 O        -4.983896         0.296771         3.733432
 H         2.022363        -0.562083         0.126256
 H         1.747625         1.242151         0.175997
 H         1.384834         0.228936         1.538451
 H        -3.164091        -0.932422        -0.470392
 H        -3.131812         0.700041        -1.816317
 H        -3.059128        -0.723075         1.925952
 H        -2.757272         0.896755         1.842098
 H        -5.184901         1.123993         0.663349
 H        -5.258608        -0.515154         1.092454
 H        -6.287096         1.523082         2.673885
