19
Iteration:  3284charge 0 multiplicity 1
 C         1.371277        -0.006911         0.047124
 C        -0.178406         0.115299        -0.188814
 C        -1.398786         0.184524        -0.223932
 C        -2.712281         0.039747         0.147971
 O        -3.513313         1.191048        -0.332892
 C        -3.012362        -0.190055         1.621994
 C        -4.486563        -0.610731         1.945893
 C        -5.363890         0.507486         2.311700
 O        -5.071193         1.499931         2.938748
 H         1.464572        -1.030322         0.185606
 H         1.954311         0.273056        -0.803511
 H         1.758236         0.377699         0.967656
 H        -3.143700        -0.825333        -0.416403
 H        -3.160914         1.972313         0.133284
 H        -2.464131        -1.031625         2.046272
 H        -2.792322         0.687408         2.273914
 H        -5.043280        -1.161770         1.120612
 H        -4.411160        -1.233893         2.812716
 H        -6.453895         0.240550         2.196528
