19
Iteration:  4086
 C         1.234771         0.774033        -0.429178
 C        -0.133893         0.281030         0.121796
 C        -1.182999        -0.225732         0.668151
 C        -2.688619        -0.225899         0.747349
 O        -3.155394        -0.404878        -0.739666
 C        -3.136014         1.099079         1.271854
 C        -4.704931         1.234339         1.336158
 C        -5.492599         0.615409         2.399186
 O        -5.075154        -0.128478         3.274333
 H         1.627407         1.776226        -0.147559
 H         1.978990         0.026160        -0.034552
 H         1.210909         0.684473        -1.534965
 H        -3.196578        -0.948068         1.419778
 H        -3.599017        -1.267923        -0.964556
 H        -2.717358         1.104835         2.305322
 H        -2.648513         1.900510         0.673949
 H        -5.024812         2.271022         1.682652
 H        -5.153047         1.106283         0.356916
 H        -6.536622         0.935581         2.487202
