19
Iteration:  3199charge 0 multiplicity 1
 C         1.244756         0.426512        -0.535889
 C         0.009449         0.054354         0.198022
 C        -1.231680         0.005740         0.325644
 C        -2.666069        -0.078235         0.392660
 O        -3.478647         1.055994        -0.094310
 C        -3.319345        -0.634167         1.696594
 C        -4.796246        -0.609591         1.777997
 C        -5.330317         0.765518         2.071944
 O        -4.740884         1.635786         2.703154
 H         2.211728        -0.201147        -0.673479
 H         0.996604         0.579448        -1.585790
 H         1.645595         1.422014        -0.156059
 H        -2.947417        -0.770915        -0.405661
 H        -3.479986         1.791155         0.556733
 H        -2.862788        -1.612996         1.769804
 H        -3.001376        -0.071118         2.572901
 H        -5.384550        -0.872547         0.884582
 H        -5.178543        -1.418059         2.489299
 H        -6.409529         0.711073         1.858728
