19
Iteration:  1959
 C         1.448616        -0.320659         0.231946
 C         0.014009         0.140234         0.138067
 C        -1.185673         0.200459        -0.032337
 C        -2.629156         0.237146         0.007796
 O        -3.237387         0.879004        -1.100140
 C        -3.444320         0.611401         1.374282
 C        -4.812169         0.154684         1.485967
 C        -5.516641         0.179664         2.739334
 O        -5.059877         0.822141         3.651588
 H         1.884955        -0.754778        -0.753633
 H         2.141791         0.457016         0.488213
 H         1.423775        -1.263864         0.865437
 H        -2.951834        -0.799097        -0.190102
 H        -2.934279         1.799466        -1.138611
 H        -2.744934         0.061629         2.099547
 H        -3.069368         1.611965         1.688678
 H        -5.503608         0.602967         0.676442
 H        -4.732857        -0.978714         1.286476
 H        -6.262445        -0.621728         2.984182
