19
Iteration:  1277charge 0 multiplicity 1
 C         1.405450        -0.172743         0.261449
 C         0.007127         0.162392         0.021552
 C        -1.237785         0.121866        -0.191358
 C        -2.726851         0.196448        -0.214924
 O        -3.108226         1.609115        -0.509321
 C        -3.280827        -0.348065         1.126302
 C        -4.763248        -0.136077         1.419302
 C        -4.968714         0.200403         3.024307
 O        -5.677275         1.083629         3.483742
 H         1.513463        -1.187746         0.724080
 H         1.892726        -0.200758        -0.733666
 H         1.872050         0.663569         0.805759
 H        -3.167839        -0.536622        -0.987949
 H        -3.408168         1.453523        -1.444632
 H        -3.039533        -1.279027         1.466283
 H        -2.688311         0.143593         1.893792
 H        -5.028820         0.786148         0.818786
 H        -5.418095        -0.938592         1.136146
 H        -4.205089        -0.483696         3.553319
