19
Iteration:  2774charge 0 multiplicity 1
 C         1.400897        -0.149138        -0.293595
 C         0.023056        -0.067752         0.151604
 C        -1.166148         0.012154         0.189755
 C        -2.643762         0.153833         0.118280
 O        -3.077377         0.634520        -1.166056
 C        -3.503160         0.795286         1.251040
 C        -4.583205        -0.042226         1.768727
 C        -5.231931         0.187713         3.103835
 O        -5.588240         1.249192         3.521756
 H         2.110351         0.597830         0.236089
 H         2.019756        -1.191476        -0.281328
 H         1.488575         0.092534        -1.392134
 H        -2.855603        -0.951291        -0.078352
 H        -2.935800         1.584625        -1.103855
 H        -2.764331         0.826110         2.089592
 H        -3.792067         1.789380         0.866938
 H        -5.468452        -0.045712         1.187235
 H        -4.310704        -1.047026         1.734730
 H        -5.411163        -0.707623         3.748741
