19
Iteration:  4049
 C         1.193597         0.722354        -0.139090
 C        -0.179664         0.185290         0.149998
 C        -1.329808        -0.031916         0.486818
 C        -2.795672        -0.294472         0.636490
 O        -3.206129        -0.430456        -0.768825
 C        -3.230987         1.087164         1.314809
 C        -4.706222         1.290783         1.346009
 C        -5.463222         0.565041         2.445751
 O        -4.685013        -0.041773         3.160043
 H         1.309929         1.789249         0.072614
 H         1.885639         0.154004         0.413403
 H         1.519347         0.493480        -1.168190
 H        -3.016910        -1.252875         1.168332
 H        -3.668284        -1.285651        -0.765231
 H        -2.907343         1.175486         2.335854
 H        -2.802564         1.895471         0.781475
 H        -5.070692         2.320295         1.292067
 H        -5.260131         0.900818         0.393382
 H        -6.577025         0.762376         2.502397
