19
Iteration:  1810charge 0 multiplicity 1
 C         1.257612         0.183427         0.795064
 C        -0.243834        -0.079990         0.326456
 C        -1.429914        -0.037719        -0.002896
 C        -2.847867        -0.002146        -0.265181
 O        -3.177457         0.831292        -1.365444
 C        -3.485714         0.335703         1.069194
 C        -4.973726         0.671458         1.334882
 C        -5.232691         0.608120         2.883959
 O        -4.389117         0.253700         3.666163
 H         2.005557        -0.310234         0.155773
 H         1.520813         1.267663         0.924777
 H         1.469361        -0.042187         1.861585
 H        -3.158093        -0.983969        -0.746017
 H        -2.719730         1.675815        -1.290572
 H        -3.355260        -0.638065         1.624985
 H        -2.752935         0.931348         1.641748
 H        -5.436490         1.662660         1.205876
 H        -5.762589        -0.015359         0.936461
 H        -6.258050         0.676494         3.331355
