19
Iteration:  3707
 C         1.262073         0.376383         0.454182
 C        -0.146063         0.222478         0.018852
 C        -1.318013        -0.013518         0.025301
 C        -2.755288        -0.227018         0.168557
 O        -3.508512        -0.062793        -1.035042
 C        -3.299769         0.709592         1.152023
 C        -4.823975         0.631391         1.274765
 C        -5.275890         0.668517         2.725598
 O        -4.550414         0.605857         3.693489
 H         1.911939         0.810279        -0.337609
 H         1.165799         1.173011         1.337101
 H         1.721603        -0.560929         0.805837
 H        -3.033426        -1.209759         0.583541
 H        -2.994244        -0.069794        -1.862209
 H        -2.815176         0.469830         2.110053
 H        -2.925277         1.740228         0.922453
 H        -4.998502         1.662101         0.778919
 H        -5.425037         0.048743         0.651527
 H        -6.380047         0.552796         2.817384
