19
Iteration:  2767charge 0 multiplicity 1
 C         1.441927        -0.188959        -0.256338
 C         0.046425        -0.087980         0.137849
 C        -1.173202         0.151908         0.273449
 C        -2.659578         0.168737         0.073820
 O        -3.158287         0.621741        -1.202974
 C        -3.426483         0.772910         1.256673
 C        -4.616170        -0.075343         1.704611
 C        -5.209098         0.186409         3.115318
 O        -5.576740         1.273274         3.536997
 H         2.210282         0.524603        -0.001054
 H         1.757680        -1.235391        -0.144328
 H         1.237633         0.104952        -1.316984
 H        -2.711779        -0.943119         0.028400
 H        -2.939359         1.557198        -0.980033
 H        -2.807728         0.681279         2.153117
 H        -3.673741         1.807383         0.932849
 H        -5.528769        -0.207489         1.040084
 H        -4.236406        -1.145611         1.858918
 H        -5.413300        -0.826444         3.593269
