19
Iteration:   794charge 0 multiplicity 1
 C         1.432579        -0.333283         0.004653
 C        -0.056697        -0.281436        -0.065769
 C        -1.259042         0.005530        -0.025622
 C        -2.609550         0.349482        -0.006600
 O        -2.818663         1.675708        -0.560127
 C        -3.353520         0.240052         1.296116
 C        -4.957632         0.321112         1.307029
 C        -5.275782         0.730655         2.778095
 O        -5.583791        -0.002441         3.715492
 H         1.768081        -0.270173         1.035324
 H         1.784803        -1.300792        -0.395791
 H         1.949323         0.438172        -0.606159
 H        -3.087966        -0.377320        -0.790048
 H        -2.629495         1.806034        -1.498007
 H        -3.114792        -0.652763         1.785678
 H        -2.885513         0.912831         2.099263
 H        -5.233115         0.872906         0.411184
 H        -5.282785        -0.701038         1.301715
 H        -4.892032         1.865004         2.908005
