19
Iteration:  4274charge 0 multiplicity 1
 C         1.227754         0.422124        -0.592337
 C        -0.159523         0.038263        -0.145325
 C        -1.124252         0.204126         0.627660
 C        -2.605456         0.086964         1.046261
 O        -3.357530        -0.354568        -0.074460
 C        -3.215360         1.478957         1.299469
 C        -4.701938         1.457065         1.391088
 C        -5.308123         0.246907         2.021063
 O        -5.115926        -0.446509         2.992259
 H         1.604427         0.641862         0.410802
 H         1.914655        -0.490119        -0.814303
 H         1.252114         1.254198        -1.277251
 H        -2.560570        -0.658447         1.898772
 H        -3.129660        -1.109158        -0.643182
 H        -2.720544         1.933213         2.179454
 H        -2.781349         1.959720         0.386697
 H        -5.075790         2.490567         1.808801
 H        -5.081979         1.389449         0.368668
 H        -6.214543        -0.126232         1.414164
