19
Iteration:   650
 C         1.251665        -0.565028         0.413600
 C        -0.097820        -0.099980        -0.026373
 C        -1.280933         0.053853        -0.287446
 C        -2.682096         0.468559        -0.266567
 O        -3.047476         1.634338        -0.992017
 C        -3.186670         0.506821         1.270230
 C        -4.742913         0.434187         1.553929
 C        -5.004591         0.541192         3.000311
 O        -5.659094        -0.182196         3.697455
 H         1.494881        -0.278692         1.423284
 H         1.371481        -1.736285         0.421321
 H         2.074449        -0.103049        -0.135561
 H        -3.291993        -0.407946        -0.873767
 H        -2.162305         2.108307        -0.946145
 H        -2.747070        -0.498356         1.482051
 H        -2.493972         1.200452         1.946807
 H        -5.331246         1.127479         0.960383
 H        -4.985489        -0.470730         1.080571
 H        -4.732128         1.497551         3.627709
