19
Iteration:  4404
 C         1.415393         0.324293        -0.302416
 C        -0.028340         0.082785        -0.119171
 C        -1.205964         0.323618         0.254147
 C        -2.622371         0.172992         0.843177
 O        -3.599749        -0.390210        -0.080895
 C        -3.189931         1.470116         1.248753
 C        -4.756563         1.284600         1.423688
 C        -5.429921         0.395783         2.293632
 O        -4.909111        -0.538116         2.887750
 H         1.756494         0.518568         0.721534
 H         2.016882        -0.485961        -0.856279
 H         1.671225         1.275580        -0.725657
 H        -2.486961        -0.436025         1.792519
 H        -3.322099        -1.120047        -0.700730
 H        -2.796774         1.806121         2.237163
 H        -3.037138         2.237672         0.457828
 H        -5.027585         2.280766         1.755535
 H        -5.230313         1.191532         0.434268
 H        -6.599615         0.609374         2.449798
