19
Iteration:  1326charge 0 multiplicity 1
 C         1.295372         0.005015         0.308046
 C        -0.115924        -0.162500         0.040935
 C        -1.254270         0.096579        -0.316896
 C        -2.752073         0.130841        -0.260651
 O        -3.280360         1.543843        -0.383505
 C        -3.115035        -0.356958         1.247351
 C        -4.633979         0.085309         1.436245
 C        -4.881951         0.234662         2.888202
 O        -5.668053         1.037548         3.389751
 H         1.614152        -0.931020         0.773734
 H         1.889404         0.157457        -0.609811
 H         1.431887         0.829542         1.026828
 H        -3.272708        -0.488409        -0.956815
 H        -2.579069         1.929475        -0.928394
 H        -2.877451        -1.520163         1.429180
 H        -2.386404         0.149619         1.977046
 H        -4.585693         1.044435         0.943411
 H        -5.391858        -0.521489         0.902327
 H        -4.208798        -0.565470         3.401344
