19
Iteration:  2231charge 0 multiplicity 1
 C         1.267587         0.232699         0.026966
 C        -0.110006         0.148257         0.251558
 C        -1.327409         0.125562         0.144108
 C        -2.729175        -0.060054         0.121591
 O        -3.543851         1.151350        -0.257112
 C        -3.280136        -0.647494         1.479189
 C        -4.837713        -0.504930         1.604227
 C        -5.267144         0.666993         2.334995
 O        -4.549280         1.542074         2.766277
 H         1.385866         0.845157        -0.915698
 H         1.799847         0.798076         0.757724
 H         1.875813        -0.715034        -0.133903
 H        -3.028050        -0.660171        -0.759038
 H        -3.420599         1.886030         0.407146
 H        -3.112253        -1.713114         1.353993
 H        -2.781204        -0.151407         2.318130
 H        -5.222196        -0.471608         0.568879
 H        -5.250249        -1.412112         2.202681
 H        -6.345436         0.756777         2.668431
