19
Iteration:   679
 C         1.219000        -0.598435         0.403928
 C        -0.120411        -0.184619        -0.046967
 C        -1.244670         0.235051        -0.230444
 C        -2.619679         0.396947        -0.237715
 O        -3.137028         1.597253        -0.826874
 C        -3.211058         0.367246         1.246162
 C        -4.762688         0.398871         1.448564
 C        -4.973052         0.645796         2.905901
 O        -5.557816        -0.146295         3.635295
 H         1.343792        -0.251399         1.465921
 H         1.475223        -1.613018         0.334053
 H         1.968227        -0.078514        -0.196996
 H        -3.182733        -0.441181        -0.677859
 H        -3.008710         2.300538        -0.166933
 H        -2.494999        -0.272426         1.911800
 H        -2.774500         1.304028         1.529324
 H        -4.756215         1.410321         0.886784
 H        -5.210044        -0.522641         0.933232
 H        -4.716578         1.560202         3.337564
