19
Iteration:  1496
 C         1.548651        -0.294758        -0.278824
 C         0.105234         0.102102        -0.111777
 C        -1.042706         0.226452         0.127250
 C        -2.504942         0.222354         0.204024
 O        -3.087380         1.189195        -0.718328
 C        -3.183975         0.441667         1.531185
 C        -4.729379         0.318299         1.464078
 C        -5.546433        -0.049087         2.732615
 O        -5.805847         0.736091         3.611806
 H         1.582080        -1.339122        -0.217650
 H         1.974534         0.127713        -1.203094
 H         2.098774        -0.025083         0.576597
 H        -2.644017        -0.750453        -0.172425
 H        -3.080673         0.758103        -1.618350
 H        -2.888150        -0.476493         1.943682
 H        -2.809995         1.299476         2.031829
 H        -5.256222         1.185828         1.081312
 H        -5.022372        -0.553977         0.838887
 H        -6.439457        -0.857997         2.611529
