19
Iteration:  3103
 C         1.018052         0.768613        -0.345217
 C        -0.123556        -0.022995        -0.025561
 C        -1.255086        -0.302571         0.172020
 C        -2.702279        -0.364936         0.300723
 O        -3.255312         1.045005         0.341618
 C        -3.276017        -0.810557         1.630152
 C        -4.772270        -0.548496         1.756460
 C        -5.325188         0.905457         2.096352
 O        -4.646935         1.831112         2.515171
 H         2.006213         0.731524         0.221969
 H         1.309065         0.760805        -1.383946
 H         0.615853         1.779716        -0.107986
 H        -3.097451        -1.020696        -0.569888
 H        -3.356159         1.439557        -0.570973
 H        -3.235819        -1.904714         1.908401
 H        -2.674940        -0.220079         2.363279
 H        -5.270302        -0.995127         0.866726
 H        -5.220863        -1.202155         2.520564
 H        -6.388630         0.903792         2.203033
