19
Iteration:  4956charge 0 multiplicity 1
 C         1.305874         0.273245         0.365247
 C        -0.198874         0.445064         0.316970
 C        -1.372385         0.217850         0.255224
 C        -2.802920        -0.022052         0.373019
 O        -3.467003        -0.487389        -0.960735
 C        -3.463880         1.290020         0.695768
 C        -4.855049         1.200639         1.346802
 C        -5.181975         0.521932         2.782498
 O        -4.423368        -0.227739         3.392005
 H         1.915371         0.215781        -0.540283
 H         1.644753         1.171784         0.864704
 H         1.604747        -0.508869         1.165421
 H        -2.755519        -0.846334         1.093867
 H        -2.936530        -1.275234        -1.117002
 H        -2.817515         1.928656         1.319103
 H        -3.587175         1.719765        -0.265226
 H        -5.317948         2.154477         1.184882
 H        -5.512398         0.570253         0.662742
 H        -6.156107         0.882303         3.276400
