19
Iteration:  3925charge 0 multiplicity 1
 C         1.186747         0.106165         0.485420
 C        -0.196836         0.362642         0.240945
 C        -1.445926         0.451674         0.171332
 C        -2.780552         0.094059         0.453036
 O        -3.368816        -0.668902        -0.649902
 C        -3.583363         1.234171         0.762197
 C        -5.066460         1.285591         1.345851
 C        -5.121165         0.377506         2.597343
 O        -4.099749        -0.047944         3.126063
 H         1.793830         0.967232         0.273745
 H         1.452898        -0.168618         1.560480
 H         1.555345        -0.608838        -0.206438
 H        -2.724750        -0.652863         1.270523
 H        -3.621285        -0.259686        -1.496013
 H        -2.931297         1.794784         1.470350
 H        -3.462572         2.024737        -0.043895
 H        -5.609005         2.263264         1.516581
 H        -5.710587         0.735431         0.476537
 H        -6.133000         0.121833         3.056318
