19
Iteration:  4064
 C         1.061957         0.659468        -0.214531
 C        -0.224253         0.245434         0.110573
 C        -1.256426        -0.043418         0.521680
 C        -2.649388        -0.279330         0.662256
 O        -3.102893        -0.399496        -0.709540
 C        -3.183992         0.999343         1.280345
 C        -4.798298         1.364595         1.282101
 C        -5.424063         0.644270         2.421280
 O        -4.850950        -0.122336         3.246043
 H         1.102043         1.748036         0.069333
 H         1.910849         0.135466         0.333725
 H         1.239386         0.638976        -1.324634
 H        -2.904940        -1.107268         1.361783
 H        -3.589406        -1.197871        -0.876878
 H        -2.700009         0.936426         2.295260
 H        -2.581503         1.798292         0.759782
 H        -4.830926         2.485546         1.376739
 H        -5.186205         0.982405         0.343711
 H        -6.499090         0.532123         2.491221
