19
Iteration:  3267charge 0 multiplicity 1
 C         1.288142        -0.033453        -0.047043
 C        -0.072669         0.368688        -0.242571
 C        -1.261859         0.125477        -0.155536
 C        -2.772416         0.009746         0.186326
 O        -3.498184         1.114193        -0.221677
 C        -3.021239        -0.327217         1.717860
 C        -4.547963        -0.575576         1.890462
 C        -5.507729         0.578020         2.317099
 O        -5.000488         1.510117         2.873208
 H         1.419748        -1.225047         0.148134
 H         1.916552         0.248733        -0.954124
 H         1.568564         0.646740         0.833514
 H        -3.051112        -0.949172        -0.350784
 H        -2.851679         1.830325        -0.108165
 H        -2.372961        -1.194919         1.969589
 H        -2.707273         0.507996         2.337562
 H        -4.838280        -1.063573         0.966726
 H        -4.765919        -1.311960         2.780247
 H        -6.605352         0.570227         2.113446
