19
Iteration:  2610
 C         1.264535         0.430219         0.129205
 C        -0.132034         0.085498        -0.084228
 C        -1.278674        -0.224161        -0.046243
 C        -2.753679        -0.197204        -0.022243
 O        -3.248878         0.893030        -0.811278
 C        -3.250634        -0.120880         1.426743
 C        -4.769090        -0.242247         1.681763
 C        -5.428493         0.755497         2.586413
 O        -4.821050         1.260412         3.530381
 H         1.279414         1.510716         0.280225
 H         1.686154        -0.277820         0.910556
 H         1.767279         0.126221        -0.773522
 H        -3.038556        -1.099378        -0.543127
 H        -2.789053         1.715201        -0.470333
 H        -2.820839        -0.877676         2.034940
 H        -2.933307         0.908604         1.702895
 H        -5.394405        -0.546926         0.797337
 H        -4.978084        -1.165941         2.359906
 H        -6.481861         1.176767         2.307325
