19
Iteration:  4665charge 0 multiplicity 1
 C         1.390153         0.072233         0.517315
 C        -0.017771         0.355671         0.104159
 C        -1.266547         0.178207        -0.049382
 C        -2.737683         0.091436         0.149756
 O        -3.550835        -0.126433        -1.125366
 C        -3.555326         1.275720         0.968327
 C        -4.885974         0.748734         1.313827
 C        -5.248737         0.368834         2.842069
 O        -4.503285         0.135270         3.783093
 H         1.421166        -0.824375         1.118549
 H         2.038097         0.266663        -0.431979
 H         1.586838         0.850176         1.216487
 H        -2.713756        -0.834470         0.851295
 H        -2.868277        -0.127192        -1.794561
 H        -2.955110         1.728981         1.789286
 H        -3.574335         1.963183         0.109497
 H        -5.723610         1.306882         0.842904
 H        -5.174099        -0.164834         0.799920
 H        -6.303106         0.316038         2.997753
