19
Iteration:  3569charge 0 multiplicity 1
 C         1.230195         0.417119        -0.361993
 C        -0.085426         0.110535         0.084056
 C        -1.213573        -0.261095         0.298109
 C        -2.657856        -0.246500         0.212899
 O        -3.133457         0.598245        -0.868380
 C        -3.144995         0.193062         1.613345
 C        -4.684598         0.107521         1.490976
 C        -5.527345         0.691336         2.524003
 O        -5.185325         1.084207         3.611423
 H         1.390816         0.205463        -1.429757
 H         1.524743         1.458992        -0.180448
 H         1.956679        -0.246860         0.170503
 H        -3.085159        -1.251937        -0.024513
 H        -2.557633         1.348134        -1.086377
 H        -3.066974        -0.636819         2.321425
 H        -2.686296         1.075827         2.083894
 H        -4.954742         0.727231         0.646403
 H        -4.845446        -0.904735         1.246187
 H        -6.580528         0.911684         2.214977
