19
Iteration:   677charge 0 multiplicity 1
 C         1.214533        -0.597274         0.408698
 C        -0.107366        -0.183827        -0.047988
 C        -1.253756         0.230310        -0.259376
 C        -2.630468         0.389651        -0.217723
 O        -3.125301         1.599904        -0.844528
 C        -3.202826         0.362962         1.242811
 C        -4.750573         0.413147         1.446654
 C        -4.988319         0.638155         2.911299
 O        -5.567639        -0.150537         3.657443
 H         1.383207        -0.254076         1.496758
 H         1.452118        -1.619287         0.354433
 H         2.008920        -0.057200        -0.199692
 H        -3.094212        -0.401719        -0.734456
 H        -2.935149         2.296616        -0.146116
 H        -2.487573        -0.198653         1.860661
 H        -2.865880         1.370783         1.527354
 H        -4.805618         1.405577         0.882460
 H        -5.267393        -0.514922         0.908668
 H        -4.701103         1.486175         3.395726
