19
Iteration:  3744charge 0 multiplicity 1
 C         1.220102         0.405639         0.481513
 C        -0.086037        -0.070339         0.201727
 C        -1.304053        -0.063128        -0.034626
 C        -2.772782        -0.027612         0.069773
 O        -3.459898        -0.159901        -1.132316
 C        -3.389462         1.002439         0.982636
 C        -4.883978         0.801450         1.294488
 C        -5.285087         0.566676         2.878134
 O        -4.463230         0.506540         3.734254
 H         1.608977         1.036802        -0.329965
 H         1.182213         1.073264         1.341233
 H         2.004781        -0.324182         0.738878
 H        -2.881603        -0.949651         0.649826
 H        -2.724088        -0.323697        -1.746423
 H        -2.869105         0.902465         1.918976
 H        -3.456130         2.002644         0.666968
 H        -5.521095         1.653232         1.012043
 H        -5.334923        -0.201800         0.816742
 H        -6.216600        -0.081481         2.987832
