19
Iteration:  3663
 C         1.304838         0.402042         0.173080
 C        -0.155512         0.284750         0.244361
 C        -1.287384        -0.003064         0.054461
 C        -2.654191        -0.295553         0.064472
 O        -3.432920         0.073031        -1.121359
 C        -3.174197         0.425043         1.329804
 C        -4.809430         0.515305         1.304983
 C        -5.381543         0.828931         2.718655
 O        -4.806420         0.715703         3.782586
 H         1.524169         0.613931        -0.880518
 H         1.562425         1.313600         0.816040
 H         1.831756        -0.498312         0.472526
 H        -2.685051        -1.359322         0.208920
 H        -3.027406        -0.520929        -1.784533
 H        -2.735479        -0.144710         2.149321
 H        -2.807958         1.460771         1.464799
 H        -5.190821         1.452571         0.791848
 H        -5.331813        -0.347948         0.934945
 H        -6.425734         1.254064         2.748985
