19
Iteration:  2162
 C         1.429023         0.301884        -0.373125
 C        -0.033798         0.183192        -0.044213
 C        -1.144731        -0.160973         0.284759
 C        -2.619069        -0.122063         0.317814
 O        -3.045764         1.075873        -0.312820
 C        -3.402795        -0.396289         1.624385
 C        -4.974646        -0.338200         1.478556
 C        -5.562662         0.623147         2.386180
 O        -5.007742         1.481467         3.088278
 H         1.346691         0.669790        -1.370404
 H         1.837248         1.136005         0.305433
 H         1.961892        -0.621513        -0.208555
 H        -2.996634        -0.977504        -0.240405
 H        -2.857196         1.691501         0.424730
 H        -3.257384        -1.469400         1.796102
 H        -2.982992         0.180029         2.469239
 H        -5.367726         0.049401         0.489933
 H        -5.461750        -1.383795         1.495997
 H        -6.655447         0.503112         2.514457
