19
Iteration:  4795
 C         1.083799         0.290420         0.305750
 C        -0.276011         0.001705         0.290581
 C        -1.478449         0.040759         0.456991
 C        -2.882765        -0.060804         0.165160
 O        -2.996801        -0.136620        -1.320833
 C        -3.650329         1.348733         0.856028
 C        -5.037776         1.020107         1.456297
 C        -5.053282         0.079314         2.752166
 O        -4.300518         0.348877         3.671298
 H         1.918176        -0.253588        -0.082072
 H         1.102875         1.253296        -0.182853
 H         1.100802         0.641534         1.295058
 H        -3.261136        -0.865248         0.733442
 H        -2.176185        -0.555910        -1.571669
 H        -2.816592         1.529291         1.528609
 H        -3.615268         2.118472         0.082460
 H        -5.511983         1.967801         1.833290
 H        -5.669638         0.560698         0.721171
 H        -5.756730        -0.728166         2.812827
