19
Iteration:  4474
 C         1.295201         0.312544        -0.289125
 C        -0.198593         0.382017        -0.035541
 C        -1.253740         0.236472         0.526625
 C        -2.633338        -0.130605         0.664667
 O        -3.194339        -0.313279        -0.681495
 C        -3.289352         1.187829         1.188974
 C        -4.769296         1.355534         1.432937
 C        -5.427786         0.534162         2.560883
 O        -4.932375        -0.379079         3.195558
 H         1.666612         0.224386         0.755886
 H         1.522516        -0.530003        -0.902534
 H         1.798256         1.251894        -0.687385
 H        -2.894183        -1.048471         1.254597
 H        -3.056888        -1.263197        -0.959625
 H        -2.959552         1.282450         2.251606
 H        -2.876408         2.060622         0.614352
 H        -5.082790         2.435534         1.715152
 H        -5.302717         1.103975         0.543639
 H        -6.464713         0.714800         2.770771
