19
Iteration:  2091charge 0 multiplicity 1
 C         1.443862         0.211571        -0.370090
 C         0.020263        -0.071512        -0.052046
 C        -1.151801        -0.203947         0.124902
 C        -2.622263        -0.112772         0.216887
 O        -2.990159         1.179109        -0.539651
 C        -3.177710        -0.072263         1.730318
 C        -4.678478        -0.271069         1.587835
 C        -5.747632         0.626249         2.420040
 O        -5.453870         1.258708         3.404615
 H         1.331943         0.382342        -1.472988
 H         1.639129         1.119228         0.105670
 H         2.066822        -0.628072         0.062202
 H        -3.259385        -0.837115        -0.305834
 H        -2.308530         1.834852        -0.304571
 H        -2.538875        -0.912036         2.080856
 H        -3.033681         0.866240         2.304633
 H        -4.948962         0.098109         0.586008
 H        -5.206674        -1.179810         1.557566
 H        -6.682068         0.745710         1.838972
