19
Iteration:  1654charge 0 multiplicity 1
 C         1.414052         0.113042         0.057674
 C        -0.041559         0.114977         0.244056
 C        -1.258021        -0.099886         0.142502
 C        -2.742250        -0.017072        -0.089147
 O        -2.965034         1.117598        -0.884822
 C        -3.426752         0.288075         1.294279
 C        -4.907799         0.283658         1.360831
 C        -5.485663         0.617071         2.654527
 O        -5.069107         0.357569         3.795779
 H         1.842866        -0.841399        -0.418069
 H         1.829425         0.900884        -0.534869
 H         1.940403         0.045072         1.066363
 H        -3.175204        -0.931751        -0.660983
 H        -2.491113         1.086434        -1.724765
 H        -2.924172        -0.495318         1.924926
 H        -2.953421         1.288172         1.588747
 H        -5.319923         0.941230         0.558719
 H        -5.463540        -0.744722         1.325063
 H        -6.365932         1.298199         2.515371
