19
Iteration:  4517charge 0 multiplicity 1
 C         1.230421         0.558433        -0.270962
 C        -0.007576        -0.007165         0.310719
 C        -1.193519        -0.186989         0.549855
 C        -2.731056        -0.050567         0.502181
 O        -3.283615        -0.146898        -0.864816
 C        -3.335052         1.266238         1.200713
 C        -4.874648         1.252383         1.322655
 C        -5.436486         0.478129         2.593183
 O        -4.754297        -0.201861         3.368858
 H         2.105379         0.408764         0.389383
 H         1.392032        -0.104027        -1.117663
 H         1.143403         1.554816        -0.779296
 H        -3.265650        -0.851426         1.106935
 H        -2.496928        -0.407721        -1.418182
 H        -2.680583         1.292113         2.091163
 H        -3.042335         2.263262         0.771973
 H        -5.344365         2.264450         1.265057
 H        -5.427257         0.690368         0.633278
 H        -6.596986         0.429606         2.679121
