19
Iteration:  1441
 C         1.444318        -0.061541        -0.098241
 C        -0.001568        -0.177465         0.037127
 C        -1.232776         0.015058         0.119665
 C        -2.680640         0.198385        -0.015280
 O        -3.052678         1.394192        -0.584659
 C        -3.261371         0.212045         1.407466
 C        -4.791232         0.185097         1.360606
 C        -5.191976        -0.022469         2.811979
 O        -5.679607         0.896181         3.486891
 H         1.987388        -0.988376        -0.127081
 H         1.621445         0.392807        -1.090225
 H         1.883001         0.613311         0.617759
 H        -2.973072        -0.683480        -0.597349
 H        -2.595015         1.588406        -1.407158
 H        -2.805792        -0.576697         1.927223
 H        -2.771672         1.012975         1.929938
 H        -5.156906         1.114769         0.888244
 H        -5.101705        -0.724813         0.751782
 H        -4.817884        -0.812883         3.379199
