19
Iteration:   625
 C         1.191177        -0.470700         0.305316
 C        -0.203650        -0.181675         0.056179
 C        -1.339216         0.126425        -0.124694
 C        -2.724235         0.386066        -0.317066
 O        -2.901336         1.678889        -1.050449
 C        -3.163999         0.465461         1.319341
 C        -4.666974         0.399183         1.615824
 C        -4.972057         0.554621         3.060934
 O        -5.700864        -0.211406         3.612742
 H         1.529171        -0.191031         1.318922
 H         1.275193        -1.537940         0.312312
 H         1.913709        -0.032887        -0.360582
 H        -3.525283        -0.320277        -0.847704
 H        -2.038151         1.656817        -1.518777
 H        -2.481563        -0.329105         1.832706
 H        -2.705653         1.417301         1.576347
 H        -5.047419         1.251780         0.999039
 H        -5.107304        -0.416455         1.079746
 H        -4.657018         1.414648         3.790695
