19
Iteration:  4112charge 0 multiplicity 1
 C         1.162191         0.720379        -0.502880
 C         0.031657         0.173774         0.260864
 C        -1.099118        -0.061971         0.443882
 C        -2.479173        -0.182779         0.660760
 O        -3.259310        -0.364913        -0.533804
 C        -3.151233         1.093592         1.287919
 C        -4.632131         1.287150         1.355098
 C        -5.515287         0.578641         2.403504
 O        -5.321984        -0.176361         3.301838
 H         1.571905         1.689443        -0.236743
 H         2.009552        -0.056915        -0.411904
 H         0.834530         0.672676        -1.538515
 H        -2.655779        -0.986741         1.368284
 H        -3.319026        -1.286720        -0.922087
 H        -2.688341         1.330592         2.267146
 H        -2.705145         1.859243         0.558235
 H        -5.095669         2.272872         1.298095
 H        -4.933224         0.764769         0.466987
 H        -6.528865         0.781972         2.147070
