19
Iteration:  4538
 C         1.127572         0.507472        -0.175606
 C        -0.104770        -0.046982         0.427711
 C        -1.308789        -0.089306         0.437488
 C        -2.766504        -0.036418         0.463831
 O        -3.317460        -0.108988        -0.900432
 C        -3.294419         1.240721         1.224427
 C        -4.765843         1.055943         1.273020
 C        -5.316870         0.387337         2.496325
 O        -4.670535        -0.054277         3.456236
 H         1.989922         0.385046         0.505718
 H         1.420770         0.173861        -1.183260
 H         0.898867         1.566057        -0.425294
 H        -3.077710        -0.922745         1.070542
 H        -2.737447         0.254546        -1.596837
 H        -2.796846         1.242370         2.236599
 H        -2.795958         2.161919         0.817574
 H        -5.236108         2.050920         1.219296
 H        -5.221934         0.576540         0.367187
 H        -6.475576         0.583137         2.517260
