19
Iteration:  2637
 C         1.394357         0.211542         0.155112
 C        -0.107548         0.044940         0.025138
 C        -1.306554        -0.064664        -0.113056
 C        -2.822461        -0.032593        -0.012606
 O        -3.427572         0.837278        -0.896063
 C        -3.123157         0.094810         1.427973
 C        -4.578553        -0.303963         1.700923
 C        -5.388467         0.621030         2.607625
 O        -4.998655         1.279612         3.550035
 H         1.592485         1.263493         0.380985
 H         1.811491        -0.546495         0.750918
 H         1.683916        -0.126807        -0.862665
 H        -3.149070        -1.049775        -0.386765
 H        -3.376330         1.784774        -0.588835
 H        -2.387133        -0.489256         2.130518
 H        -2.812991         1.189373         1.711217
 H        -5.138989        -0.310254         0.728769
 H        -4.727351        -1.371297         2.088450
 H        -6.496963         0.700746         2.261098
