19
Iteration:  4281
 C         1.159085         0.416311        -0.533763
 C        -0.167640         0.032829        -0.108896
 C        -1.133584         0.160683         0.633904
 C        -2.623568         0.131474         0.997161
 O        -3.352038        -0.345387        -0.081871
 C        -3.192514         1.476884         1.261214
 C        -4.666188         1.480777         1.411309
 C        -5.323499         0.225487         2.014816
 O        -5.074817        -0.455938         2.982040
 H         1.701163         0.781768         0.367091
 H         1.701810        -0.390065        -1.032844
 H         1.173657         1.170523        -1.359986
 H        -2.692619        -0.567902         1.895543
 H        -2.899350        -1.227003        -0.237223
 H        -2.609712         1.827541         2.117229
 H        -2.924940         2.130306         0.424035
 H        -5.078172         2.337329         1.863631
 H        -5.037655         1.470589         0.322950
 H        -6.140142        -0.125419         1.319979
