19
Iteration:     6charge 0 multiplicity 1
 C         1.476767        -0.166580        -0.064015
 C         0.038268        -0.068937        -0.063053
 C        -1.181713         0.045752         0.017065
 C        -2.650689         0.137878         0.013082
 O        -3.084373         1.272511        -0.800752
 C        -3.181032         0.255013         1.452694
 C        -4.689671         0.374036         1.483642
 C        -5.144265         0.735700         2.885323
 O        -5.968984         0.148595         3.554451
 H         1.918982         0.121517         0.923943
 H         1.859369        -1.164453        -0.351930
 H         1.895040         0.515348        -0.844456
 H        -3.167029        -0.743272        -0.494874
 H        -2.336228         1.918657        -0.693073
 H        -2.807353        -0.779835         1.730906
 H        -2.588871         1.130323         1.826051
 H        -5.115000         1.187090         0.822089
 H        -5.103296        -0.598129         1.100209
 H        -4.752108         1.662803         3.402704
