19
Iteration:  4067
 C         1.060416         0.669069        -0.250938
 C        -0.218179         0.264933         0.103923
 C        -1.223930        -0.081437         0.546391
 C        -2.654629        -0.292110         0.639468
 O        -3.087181        -0.388354        -0.690692
 C        -3.226039         1.021805         1.285941
 C        -4.765330         1.371078         1.262158
 C        -5.409333         0.619537         2.420184
 O        -4.897053        -0.135670         3.273085
 H         1.096329         1.719799         0.048508
 H         1.946408         0.086822         0.254134
 H         1.255620         0.635318        -1.309002
 H        -2.862282        -1.151774         1.255339
 H        -3.564883        -1.246233        -0.744755
 H        -2.782285         1.042191         2.321948
 H        -2.619570         1.872083         0.775957
 H        -4.744330         2.465300         1.380160
 H        -5.185725         1.064803         0.348088
 H        -6.542780         0.707010         2.445430
