19
Iteration:  2735charge 0 multiplicity 1
 C         1.361277        -0.322902        -0.110601
 C        -0.009602         0.118977         0.020542
 C        -1.204551         0.413655         0.091176
 C        -2.620403         0.177900         0.119705
 O        -3.230278         0.586066        -1.118185
 C        -3.336285         0.622998         1.410068
 C        -4.638630        -0.144614         1.690617
 C        -5.226976         0.156631         3.035848
 O        -5.427678         1.280272         3.441923
 H         2.137265         0.284290         0.293423
 H         1.431620        -1.345585         0.097765
 H         1.384338        -0.365342        -1.205906
 H        -2.701388        -0.908145         0.262183
 H        -2.864840         1.481188        -1.314210
 H        -2.674465         0.682482         2.279400
 H        -3.571641         1.700026         1.447865
 H        -5.446627         0.091123         0.898773
 H        -4.357354        -1.267825         1.590090
 H        -5.724488        -0.711242         3.550382
