19
Iteration:  4625
 C         1.271081         0.211170         0.390658
 C        -0.198588         0.158179         0.193697
 C        -1.346583         0.387481        -0.053642
 C        -2.722330         0.012758         0.172414
 O        -3.455551        -0.236050        -1.061607
 C        -3.293375         1.146035         1.025290
 C        -4.797308         0.942709         1.322485
 C        -5.191261         0.300653         2.723077
 O        -4.675182         0.133920         3.808957
 H         1.892810        -0.471049         0.986903
 H         1.747515         0.080599        -0.599418
 H         1.448831         1.262053         0.714106
 H        -2.829592        -0.980427         0.622357
 H        -2.846978         0.054957        -1.801227
 H        -2.716901         1.257591         2.002526
 H        -3.321262         2.062975         0.361337
 H        -5.325714         1.910283         1.375300
 H        -5.328358         0.232979         0.562967
 H        -6.289026         0.020410         2.710736
