19
Iteration:  2769charge 0 multiplicity 1
 C         1.436554        -0.185458        -0.262482
 C         0.043027        -0.085115         0.139257
 C        -1.172685         0.114382         0.254253
 C        -2.659500         0.172953         0.084806
 O        -3.141421         0.619807        -1.197571
 C        -3.448645         0.782112         1.256356
 C        -4.600645        -0.056016         1.718944
 C        -5.215014         0.187149         3.116960
 O        -5.579568         1.266485         3.531930
 H         2.183296         0.518373         0.012085
 H         1.786748        -1.130058        -0.182869
 H         1.283450         0.115683        -1.294839
 H        -2.688463        -0.895370        -0.018635
 H        -2.913764         1.564468        -0.937185
 H        -2.816786         0.662929         2.139384
 H        -3.695807         1.776203         0.881836
 H        -5.566731        -0.186860         1.062536
 H        -4.244935        -1.190303         1.848095
 H        -5.408283        -0.806943         3.616165
