19
Iteration:  1129
 C         1.570505        -0.159013        -0.336768
 C         0.213145        -0.127149        -0.119544
 C        -1.016929         0.116901         0.025408
 C        -2.478914         0.168031         0.006572
 O        -2.976376         1.275054        -0.647238
 C        -3.326236         0.245296         1.467163
 C        -4.844257         0.406781         1.506777
 C        -5.354086         0.099977         2.918890
 O        -6.112925         0.721917         3.626887
 H         1.972091        -0.839818         0.363056
 H         1.753831        -0.470779        -1.402065
 H         2.027126         0.816013        -0.220893
 H        -2.737887        -0.854026        -0.465280
 H        -2.433905         2.057096        -0.500899
 H        -2.915204        -0.686709         1.802099
 H        -2.771723         0.869204         2.120709
 H        -5.321929         1.229499         1.082805
 H        -5.339329        -0.394773         0.858509
 H        -4.997753        -0.919274         3.250307
