19
Iteration:  1823
 C         1.204401         0.168724         0.772786
 C        -0.183153        -0.082773         0.360823
 C        -1.342123        -0.129515        -0.040111
 C        -2.869871         0.088002        -0.210745
 O        -3.159031         0.874021        -1.388525
 C        -3.527735         0.376141         1.199894
 C        -5.085056         0.587864         1.304562
 C        -5.219367         0.563200         2.846389
 O        -4.330202         0.255921         3.674001
 H         1.914992        -0.275823         0.117391
 H         1.356289         1.317278         0.701047
 H         1.316828        -0.285756         1.747623
 H        -3.364378        -0.899122        -0.387986
 H        -2.607970         1.710391        -1.413365
 H        -3.226110        -0.473437         1.789379
 H        -3.139040         1.328406         1.585156
 H        -5.262813         1.536417         0.769556
 H        -5.678056        -0.206496         0.724371
 H        -6.189185         1.036288         3.157048
