19
Iteration:  3812charge 0 multiplicity 1
 C         1.273204         0.181797         0.376364
 C        -0.280941         0.268012         0.386899
 C        -1.469173         0.059642         0.362438
 C        -2.899489        -0.053511         0.326577
 O        -3.167024        -0.236453        -1.227717
 C        -3.681307         1.221840         0.881530
 C        -5.073294         0.909120         1.321920
 C        -5.137576         0.340076         2.756269
 O        -4.109604         0.403018         3.487675
 H         1.674619         0.898327        -0.367749
 H         1.632625         0.342020         1.343801
 H         1.527209        -0.878144         0.130035
 H        -3.277644        -0.972791         0.723600
 H        -3.017407        -1.177896        -1.461927
 H        -3.115840         1.677286         1.770989
 H        -3.540044         1.779177        -0.084115
 H        -5.374781         1.994231         1.380817
 H        -5.778699         0.391486         0.454432
 H        -6.056786        -0.123774         3.179569
