19
Iteration:  2658charge 0 multiplicity 1
 C         1.377966         0.008267         0.103476
 C        -0.059898         0.031034         0.098111
 C        -1.235932         0.176616        -0.236886
 C        -2.667302         0.019283        -0.015058
 O        -3.579922         0.780679        -0.922055
 C        -3.094602         0.258539         1.541267
 C        -4.550521        -0.284719         1.710910
 C        -5.426304         0.511377         2.645782
 O        -5.079194         1.282721         3.507305
 H         1.635951         0.982300         0.474901
 H         1.702482        -0.759735         0.752694
 H         1.848311        -0.264988        -0.860485
 H        -2.905303        -1.069219        -0.193593
 H        -3.255131         1.683893        -0.865213
 H        -2.497125        -0.359286         2.331757
 H        -2.950150         1.394746         1.702814
 H        -5.136307        -0.170201         0.708148
 H        -4.519854        -1.451298         1.838821
 H        -6.513406         0.128352         2.741522
