19
Iteration:   822
 C         1.467443        -0.227554        -0.125074
 C        -0.096668        -0.398084         0.023183
 C        -1.316720        -0.101003         0.003336
 C        -2.732222         0.273509        -0.040894
 O        -2.836986         1.671977        -0.452111
 C        -3.269876         0.293713         1.366637
 C        -4.760634         0.304994         1.372005
 C        -5.238560         0.732205         2.720221
 O        -5.709483         0.016682         3.598476
 H         1.976720        -0.109702         0.856141
 H         2.028078        -1.052085        -0.676688
 H         1.742498         0.619477        -0.760459
 H        -3.303878        -0.340314        -0.758596
 H        -2.477191         1.857462        -1.310347
 H        -2.661351        -0.352946         2.127613
 H        -2.838970         1.153059         1.852192
 H        -4.889940         1.218286         0.656500
 H        -5.256630        -0.710541         1.165025
 H        -5.234640         1.904854         2.867134
