19
Iteration:   240
 C         1.546093        -0.235064        -0.063259
 C         0.058741         0.006390        -0.031859
 C        -1.121174         0.287943        -0.107588
 C        -2.644533         0.197190        -0.078405
 O        -3.317098         1.331865        -0.528568
 C        -3.073490        -0.076228         1.385432
 C        -4.677648        -0.028641         1.586707
 C        -4.977038         0.596724         2.853645
 O        -6.084300         0.641654         3.394273
 H         2.060124         0.216934         0.827282
 H         1.770693        -1.347958        -0.148803
 H         1.908445         0.228704        -1.030047
 H        -2.988402        -0.509961        -0.908721
 H        -2.741252         1.990170        -0.139069
 H        -2.860842        -1.057626         1.842792
 H        -2.670548         0.647985         2.029238
 H        -5.166028         0.716339         0.784965
 H        -5.272799        -0.882430         1.327853
 H        -3.993550         1.206469         3.203844
