19
Iteration:  3659
 C         1.285853         0.429188         0.160029
 C        -0.112209         0.223959         0.224574
 C        -1.274972         0.027361         0.076109
 C        -2.620715        -0.271820         0.051098
 O        -3.416885         0.073114        -1.112483
 C        -3.219022         0.397340         1.323601
 C        -4.804373         0.520967         1.321993
 C        -5.400544         0.837469         2.720829
 O        -4.818543         0.724221         3.807464
 H         1.516420         0.619250        -0.935090
 H         1.520695         1.304195         0.759263
 H         1.858632        -0.502562         0.472199
 H        -2.804567        -1.400314         0.162202
 H        -3.106674        -0.466886        -1.863301
 H        -2.806783        -0.189553         2.236752
 H        -2.727247         1.400365         1.454597
 H        -5.240459         1.294065         0.687032
 H        -5.282926        -0.364635         0.866467
 H        -6.411422         1.309708         2.684431
