19
Iteration:    78charge 0 multiplicity 1
 C         1.434769         0.005094        -0.015511
 C         0.013998         0.039966         0.050694
 C        -1.172235        -0.102522        -0.029023
 C        -2.602068         0.058489        -0.096883
 O        -2.976484         1.470675        -0.562139
 C        -3.261168        -0.277559         1.250442
 C        -4.793030         0.222382         1.430034
 C        -5.026035         0.805811         2.848560
 O        -5.901841         0.439644         3.589795
 H         1.997414         0.429960         0.834214
 H         1.806408        -0.935215        -0.224983
 H         1.701402         0.618112        -0.893059
 H        -3.021111        -0.546041        -0.807764
 H        -3.864804         1.258572        -0.932801
 H        -3.141617        -1.328008         1.420636
 H        -2.665222         0.368671         1.877522
 H        -4.844941         1.124638         0.882409
 H        -5.590698        -0.465750         1.135920
 H        -4.476629         1.646979         3.193922
