19
Iteration:  1348charge 0 multiplicity 1
 C         1.319735         0.007602         0.350234
 C        -0.073445        -0.069285        -0.188915
 C        -1.283923        -0.007037        -0.324066
 C        -2.697888         0.121948        -0.170142
 O        -3.153681         1.473623        -0.481987
 C        -3.220037        -0.261961         1.185960
 C        -4.657741         0.112506         1.492956
 C        -4.936950         0.204145         2.948733
 O        -5.707679         1.047826         3.432738
 H         1.632732        -0.926209         0.839610
 H         2.038726         0.283830        -0.435275
 H         1.282650         0.838329         1.079127
 H        -3.231238        -0.425266        -0.914543
 H        -2.484935         2.044434        -0.037600
 H        -2.923144        -1.382502         1.335533
 H        -2.555139         0.069696         2.033153
 H        -4.875639         1.009090         0.903537
 H        -5.200474        -0.709958         1.043917
 H        -4.330998        -0.659313         3.569889
