19
Iteration:  1265charge 0 multiplicity 1
 C         1.380489        -0.155456         0.209670
 C         0.010486         0.108311        -0.058278
 C        -1.201082         0.182348        -0.144003
 C        -2.652103         0.258669        -0.181263
 O        -3.067439         1.507411        -0.536975
 C        -3.275162        -0.273956         1.221547
 C        -4.873087        -0.130564         1.443680
 C        -5.006272         0.212826         2.947367
 O        -5.659567         1.045433         3.514337
 H         1.447172        -1.120324         0.813581
 H         1.979196        -0.285688        -0.674150
 H         1.898728         0.564187         0.882756
 H        -3.047390        -0.439560        -1.020761
 H        -3.413983         1.631333        -1.429373
 H        -2.994772        -1.236135         0.993441
 H        -2.799568         0.236116         2.044270
 H        -5.382301         0.677812         0.807960
 H        -5.300498        -1.116684         1.176182
 H        -4.374474        -0.390461         3.685578
