19
Iteration:  1218
 C         1.421323        -0.149603         0.037974
 C        -0.000278        -0.065441         0.044320
 C        -1.219875         0.058162        -0.118148
 C        -2.624470         0.181534        -0.065546
 O        -3.235485         1.526589        -0.524370
 C        -3.143059         0.076635         1.320251
 C        -4.726818         0.032119         1.479992
 C        -5.117890         0.026646         2.884810
 O        -5.709710         0.965796         3.385106
 H         1.772650        -0.969738         0.684581
 H         1.802090        -0.247620        -0.969625
 H         1.876608         0.755525         0.479724
 H        -3.245532        -0.435961        -0.757077
 H        -2.572482         1.773381        -1.169589
 H        -2.803820        -0.895231         1.670987
 H        -2.843085         0.884849         2.004497
 H        -5.193717         0.802346         0.880906
 H        -5.043157        -0.958566         0.925058
 H        -4.724784        -0.726746         3.654251
