19
Iteration:  3711
 C         1.289405         0.408095         0.483887
 C        -0.122958         0.167460         0.002133
 C        -1.324746        -0.001097         0.010136
 C        -2.773603        -0.215245         0.167572
 O        -3.515930        -0.075070        -1.045030
 C        -3.329482         0.728430         1.166802
 C        -4.800215         0.655014         1.274899
 C        -5.277150         0.648809         2.719769
 O        -4.536235         0.603702         3.687736
 H         1.857702         0.814243        -0.329363
 H         1.126764         1.057058         1.286361
 H         1.670068        -0.554589         0.816390
 H        -3.049415        -1.191873         0.556928
 H        -2.870043        -0.090781        -1.770890
 H        -2.809888         0.558490         2.087657
 H        -3.092297         1.736124         0.887826
 H        -5.115064         1.691246         0.996347
 H        -5.419544        -0.060073         0.587077
 H        -6.394564         0.604031         2.867976
