19
Iteration:  2328
 C         0.885468         0.304741         0.673973
 C        -0.459416         0.149254         0.214745
 C        -1.514599         0.055906        -0.376378
 C        -3.012306        -0.076046        -0.104951
 O        -3.635727         1.250948        -0.102425
 C        -3.103762        -0.796391         1.184783
 C        -4.434817        -0.721971         1.861856
 C        -4.950730         0.802067         2.167571
 O        -4.248462         1.646029         2.702032
 H         1.292843         1.158927         0.136797
 H         0.930728         0.494260         1.782774
 H         1.612669        -0.545723         0.606123
 H        -3.482731        -0.540499        -0.964753
 H        -3.144143         1.717383         0.634155
 H        -2.988702        -1.862168         0.891795
 H        -2.307007        -0.571930         1.904123
 H        -5.295792        -1.154544         1.337980
 H        -4.388936        -0.986226         2.938789
 H        -5.995686         1.123295         1.828751
