19
Iteration:  2745charge 0 multiplicity 1
 C         1.357673        -0.329146        -0.250057
 C        -0.009042         0.064325         0.134158
 C        -1.172198         0.369057         0.187851
 C        -2.647293         0.194702         0.103797
 O        -3.225834         0.583837        -1.167998
 C        -3.362015         0.671647         1.389188
 C        -4.566993        -0.164758         1.691086
 C        -5.285716         0.176626         3.018546
 O        -5.467337         1.293226         3.509512
 H         1.953889         0.376843         0.323969
 H         1.617342        -1.247209         0.249952
 H         1.770260        -0.134133        -1.249134
 H        -2.616467        -0.895181        -0.083619
 H        -2.903512         1.495517        -1.270630
 H        -2.650363         0.607105         2.209974
 H        -3.724217         1.657794         1.062333
 H        -5.288698         0.148017         0.863866
 H        -4.541347        -1.300950         1.649925
 H        -5.321408        -0.758123         3.655866
