19
Iteration:  3418charge 0 multiplicity 1
 C         1.465702        -0.141536        -0.116028
 C         0.018559        -0.097650        -0.105965
 C        -1.181021         0.243537        -0.042813
 C        -2.693607         0.114529         0.140608
 O        -3.562314         1.272371        -0.509534
 C        -3.095552         0.008596         1.568987
 C        -4.513814        -0.507988         1.872000
 C        -5.383766         0.272910         2.809443
 O        -5.362374         1.484325         2.894525
 H         1.820288        -0.966651        -0.776884
 H         1.723941         0.790971        -0.607036
 H         1.952940        -0.214320         0.910720
 H        -3.249397        -0.740108        -0.325740
 H        -2.844869         1.826558        -0.862930
 H        -2.226744        -0.520070         2.045343
 H        -3.039098         1.056569         1.961319
 H        -5.099760        -0.415927         0.877232
 H        -4.459091        -1.597793         1.881476
 H        -6.207443        -0.243115         3.386460
