19
Iteration:  1280
 C         1.414394        -0.171628         0.267303
 C        -0.028597         0.166119         0.041704
 C        -1.244540         0.104999        -0.201226
 C        -2.732539         0.150403        -0.212215
 O        -3.128227         1.639236        -0.506984
 C        -3.277757        -0.360722         1.120155
 C        -4.726274        -0.120525         1.418204
 C        -4.966702         0.206730         3.017090
 O        -5.668326         1.074839         3.467249
 H         1.558346        -1.123667         0.723409
 H         1.936142        -0.204465        -0.764988
 H         1.890118         0.621520         0.833604
 H        -3.061273        -0.533417        -0.935003
 H        -3.414401         1.563820        -1.414791
 H        -3.053961        -1.442638         1.438405
 H        -2.664338         0.297209         1.784493
 H        -5.033973         0.771933         0.953762
 H        -5.441903        -0.842811         1.208052
 H        -4.250706        -0.443612         3.577404
