19
Iteration:  3112charge 0 multiplicity 1
 C         1.069250         0.835186        -0.397851
 C        -0.094316        -0.054063        -0.047937
 C        -1.307612        -0.273154         0.180949
 C        -2.746227        -0.341604         0.355544
 O        -3.220622         0.975503         0.350863
 C        -3.284258        -0.797187         1.686340
 C        -4.817260        -0.518035         1.757474
 C        -5.347486         0.879456         2.111543
 O        -4.624715         1.788924         2.458278
 H         2.017072         0.528262         0.308904
 H         1.320910         0.877246        -1.488233
 H         0.753063         1.926843        -0.161102
 H        -3.213068        -0.895462        -0.474792
 H        -3.035978         1.608608        -0.392854
 H        -3.270950        -1.938932         1.729345
 H        -2.796534        -0.435794         2.596446
 H        -5.310207        -0.721932         0.866535
 H        -5.141686        -1.217975         2.454682
 H        -6.447907         1.050549         2.040085
