19
Iteration:  1133charge 0 multiplicity 1
 C         1.575230        -0.156347        -0.312111
 C         0.145397        -0.112281        -0.161482
 C        -0.999092         0.089375         0.014091
 C        -2.452055         0.169729         0.000937
 O        -2.981974         1.284713        -0.657519
 C        -3.291169         0.247098         1.483080
 C        -4.839229         0.372151         1.470456
 C        -5.367785         0.063931         2.937633
 O        -6.104933         0.754312         3.627619
 H         2.017334        -0.915892         0.450678
 H         1.820040        -0.465207        -1.317103
 H         2.060830         0.857884        -0.160934
 H        -2.779414        -0.822388        -0.496210
 H        -2.543552         2.133854        -0.435791
 H        -2.909352        -0.737069         1.907513
 H        -2.809093         0.960086         2.253440
 H        -5.440531         1.420175         1.192609
 H        -5.306022        -0.436181         0.871102
 H        -5.009061        -0.936832         3.202356
