19
Iteration:  3037charge 0 multiplicity 1
 C         1.289195         0.479856        -0.064447
 C        -0.152823         0.221117        -0.094505
 C        -1.348510        -0.119043         0.041857
 C        -2.846672        -0.279983         0.195183
 O        -3.412487         0.972560        -0.307075
 C        -3.278693        -0.447743         1.646078
 C        -4.724301        -0.641538         1.981720
 C        -5.272151         0.812547         2.183897
 O        -4.697262         1.635315         2.876507
 H         1.712749         0.168787         0.892860
 H         1.827141         0.038672        -0.852513
 H         1.394860         1.532641        -0.245093
 H        -3.226554        -0.962372        -0.597057
 H        -2.860888         1.277923        -1.038845
 H        -2.707137        -1.343418         1.914705
 H        -2.912898         0.332068         2.324986
 H        -5.329217        -1.298779         1.307732
 H        -4.863140        -1.100764         3.015001
 H        -6.274255         1.111005         1.658048
