19
Iteration:   747
 C         1.267849        -0.554299         0.156593
 C        -0.025082        -0.019274         0.106435
 C        -1.224447         0.233249        -0.099708
 C        -2.708987         0.308875        -0.202070
 O        -3.022064         1.572553        -0.599549
 C        -3.220617         0.210820         1.217911
 C        -4.785442         0.337739         1.208313
 C        -5.217293         0.759162         2.871506
 O        -5.490698        -0.047250         3.731401
 H         1.674647        -0.501114         1.129707
 H         1.359796        -1.626692        -0.220685
 H         1.910927         0.039246        -0.442968
 H        -3.131282        -0.411058        -0.985069
 H        -2.196186         1.997389        -0.967246
 H        -3.029334        -0.853572         1.687558
 H        -2.714348         0.811625         1.974159
 H        -5.329861         1.202598         0.582025
 H        -5.340423        -0.598960         1.056179
 H        -5.050117         1.972665         3.155346
