19
Iteration:  2746charge 0 multiplicity 1
 C         1.359262        -0.326352        -0.259912
 C        -0.002589         0.056629         0.142521
 C        -1.173737         0.366283         0.198135
 C        -2.645142         0.187947         0.103174
 O        -3.224171         0.586797        -1.170549
 C        -3.364185         0.680284         1.383550
 C        -4.565178        -0.163698         1.692794
 C        -5.287575         0.178937         3.017729
 O        -5.472020         1.291423         3.515410
 H         1.934270         0.366558         0.331462
 H         1.640708        -1.199790         0.218722
 H         1.787477        -0.147439        -1.237540
 H        -2.655051        -0.885506        -0.109922
 H        -2.929629         1.492069        -1.295222
 H        -2.639600         0.600174         2.191639
 H        -3.731204         1.653655         1.047325
 H        -5.295700         0.143636         0.842739
 H        -4.541321        -1.329052         1.654549
 H        -5.303261        -0.734126         3.674835
