19
Iteration:  3204charge 0 multiplicity 1
 C         1.256144         0.387972        -0.518364
 C         0.023563         0.034270         0.183325
 C        -1.205601         0.053318         0.308713
 C        -2.680897        -0.043881         0.344835
 O        -3.535012         1.053985        -0.105284
 C        -3.284396        -0.614470         1.717969
 C        -4.759664        -0.576714         1.776758
 C        -5.364157         0.740405         2.114108
 O        -4.763335         1.619049         2.704998
 H         2.152214        -0.232767        -0.568971
 H         1.047113         0.642882        -1.589282
 H         1.638361         1.309573        -0.102785
 H        -2.809469        -0.893364        -0.377567
 H        -3.196622         1.755343         0.508524
 H        -2.977591        -1.703156         1.777456
 H        -2.985155        -0.149754         2.690017
 H        -5.326546        -0.892431         0.877865
 H        -5.117119        -1.329297         2.451155
 H        -6.471444         0.742492         1.785130
