19
Iteration:  4867
 C         1.312223         0.293923         0.543867
 C        -0.233683         0.302558         0.423508
 C        -1.401814         0.065017         0.162250
 C        -2.813521        -0.075597         0.196074
 O        -3.645304        -0.262816        -0.986325
 C        -3.484774         1.295479         0.876778
 C        -4.840157         0.922783         1.212545
 C        -5.030313         0.178160         2.580089
 O        -4.236233         0.264329         3.507931
 H         1.620646        -0.372450        -0.270175
 H         1.843037         1.233563         0.293042
 H         1.531831         0.014357         1.668873
 H        -3.171921        -0.891847         0.908647
 H        -3.747860         0.598057        -1.380872
 H        -3.003066         1.402073         1.865242
 H        -3.252614         2.118071         0.175454
 H        -5.451764         1.781011         1.452313
 H        -5.300425         0.219490         0.443014
 H        -6.045964        -0.212001         2.728344
