19
Iteration:  3186charge 0 multiplicity 1
 C         1.183123         0.517677        -0.560974
 C        -0.030837         0.134948         0.149054
 C        -1.243209        -0.078323         0.402081
 C        -2.765620        -0.156769         0.398029
 O        -3.307196         1.093238        -0.060301
 C        -3.279065        -0.689545         1.706659
 C        -4.868418        -0.665172         1.717860
 C        -5.331158         0.781408         2.100536
 O        -4.684698         1.662332         2.654869
 H         1.860772        -0.275984        -0.353634
 H         0.882704         0.581529        -1.615390
 H         1.585392         1.492569        -0.259230
 H        -2.967006        -0.950719        -0.419501
 H        -3.705714         1.519259         0.733618
 H        -2.904597        -1.651756         1.981192
 H        -2.929372         0.022199         2.469191
 H        -5.287348        -1.087542         0.714476
 H        -5.317108        -1.211409         2.672482
 H        -6.313161         1.129890         1.778052
