19
Iteration:  3293
 C         1.347089        -0.026743         0.082976
 C        -0.133672        -0.015757        -0.126160
 C        -1.345684         0.187381        -0.191426
 C        -2.850381         0.101715         0.090757
 O        -3.550823         1.244101        -0.399484
 C        -3.006187        -0.187172         1.574962
 C        -4.382979        -0.653187         1.962058
 C        -5.335541         0.487712         2.352049
 O        -5.110361         1.520464         2.969673
 H         1.663969        -1.080126         0.055305
 H         1.884023         0.401316        -0.834177
 H         1.615778         0.560690         0.969676
 H        -3.107058        -0.772252        -0.409674
 H        -3.313905         1.913645         0.268616
 H        -2.093625        -0.777898         1.879186
 H        -2.892439         0.810428         2.090095
 H        -4.856610        -1.193493         1.131243
 H        -4.448849        -1.280375         2.781753
 H        -6.404096         0.250788         2.158451
