19
Iteration:  4417charge 0 multiplicity 1
 C         1.394750         0.326531        -0.276012
 C        -0.016336         0.170816         0.009023
 C        -1.193943         0.378616         0.206240
 C        -2.476997         0.114793         0.678628
 O        -3.602508        -0.355989        -0.121970
 C        -3.254234         1.338492         1.263063
 C        -4.746835         1.336646         1.351286
 C        -5.486835         0.407838         2.403892
 O        -4.940800        -0.536747         2.956333
 H         2.021671         0.206216         0.622716
 H         1.741700        -0.615660        -0.852296
 H         1.575515         1.178071        -0.924638
 H        -2.346594        -0.714883         1.471061
 H        -3.243430        -1.143703        -0.507158
 H        -2.693734         1.711283         2.154873
 H        -3.067649         2.195452         0.538879
 H        -5.145029         2.354995         1.624592
 H        -5.180937         1.149798         0.403576
 H        -6.614657         0.758171         2.665523
