19
Iteration:  1834charge 0 multiplicity 1
 C         1.116078         0.111654         0.731720
 C        -0.214990        -0.048603         0.325695
 C        -1.358653        -0.152990        -0.006839
 C        -2.787156         0.032357        -0.172345
 O        -3.166045         0.928758        -1.367625
 C        -3.517964         0.487812         1.191505
 C        -4.966739         0.469613         1.330025
 C        -5.240726         0.583921         2.838116
 O        -4.382065         0.274321         3.593875
 H         1.776360        -0.294546         0.018418
 H         1.370070         1.244227         0.860909
 H         1.424147        -0.141729         1.721539
 H        -3.227040        -0.956724        -0.482497
 H        -2.452573         1.596914        -1.148649
 H        -3.053573        -0.153093         1.923200
 H        -3.120416         1.456426         1.526042
 H        -5.561592         1.331612         0.990859
 H        -5.556989        -0.463738         1.012230
 H        -6.171888         1.055035         3.257297
