19
Iteration:  1909
 C         1.322826        -0.128824         0.525113
 C        -0.082457        -0.119316         0.150046
 C        -1.263381         0.159995        -0.063768
 C        -2.781473         0.139501        -0.182791
 O        -3.154207         0.968892        -1.374098
 C        -3.387000         0.653143         1.215704
 C        -4.845309         0.178769         1.491648
 C        -5.388993         0.393874         2.803105
 O        -4.896401         0.543199         3.904199
 H         1.973231        -0.492112        -0.244476
 H         1.640254         0.927038         0.765970
 H         1.519466        -0.764952         1.399385
 H        -3.248115        -0.860812        -0.467322
 H        -2.437084         1.607251        -1.378839
 H        -2.652986         0.362406         1.939041
 H        -3.057867         1.691863         1.188381
 H        -5.641212         0.348712         0.810779
 H        -4.674490        -0.878057         1.570541
 H        -6.505032         0.290112         2.833509
