19
Iteration:  1767
 C         1.136440         0.139203         0.799472
 C        -0.234605         0.216547         0.299776
 C        -1.339294        -0.071342        -0.204341
 C        -2.867470        -0.084240        -0.266252
 O        -3.290082         0.826550        -1.265361
 C        -3.311472         0.193306         1.169758
 C        -4.687009         0.695872         1.413618
 C        -5.252104         0.605744         2.749611
 O        -4.592615         0.277557         3.732985
 H         1.632963        -0.567258         0.126750
 H         1.586745         1.194837         0.694103
 H         1.146226        -0.222298         1.840382
 H        -3.351604        -1.080851        -0.624419
 H        -2.898468         1.657902        -0.991696
 H        -3.389281        -0.832876         1.567183
 H        -2.580943         0.486090         1.915316
 H        -4.730304         1.770397         1.056389
 H        -5.351766         0.201649         0.601193
 H        -6.266863         1.119653         2.954367
