19
Iteration:  4242
 C         1.337969         0.330756        -0.613457
 C        -0.016435         0.365751         0.004499
 C        -1.185751         0.142461         0.345785
 C        -2.541545         0.144675         0.859410
 O        -3.362806        -0.489337        -0.029117
 C        -3.188954         1.342360         1.510985
 C        -4.709306         1.309497         1.378503
 C        -5.545282         0.250555         2.021638
 O        -5.129712        -0.269402         3.027423
 H         2.110802         0.677506         0.082245
 H         1.550400        -0.771024        -0.785860
 H         1.484953         1.004821        -1.428444
 H        -2.599075        -0.467482         1.772784
 H        -3.055852        -0.805002        -0.870917
 H        -2.951151         1.372105         2.584773
 H        -2.884962         2.313917         1.025296
 H        -5.021687         2.343620         1.804333
 H        -5.029815         1.364319         0.359511
 H        -6.542262         0.156354         1.585364
