19
Iteration:   866
 C         1.432301        -0.285722        -0.224565
 C         0.013911        -0.054315        -0.156628
 C        -1.225246        -0.075296        -0.068587
 C        -2.748614         0.213709         0.083630
 O        -2.789096         1.535047        -0.516138
 C        -3.138209         0.214650         1.537536
 C        -4.680355         0.394961         1.505360
 C        -5.345372         0.780457         2.809419
 O        -5.986600         0.014578         3.499077
 H         1.810371        -0.409961         0.789939
 H         1.571206        -1.270321        -0.810604
 H         1.972898         0.483086        -0.772651
 H        -3.407451        -0.597071        -0.411013
 H        -2.126694         1.498949        -1.191064
 H        -2.787454        -0.592960         2.263261
 H        -2.696937         1.104808         1.982825
 H        -4.802869         1.205117         0.728694
 H        -4.911855        -0.547498         0.999633
 H        -4.944286         1.818438         3.046598
