19
Iteration:  4739
 C         1.223562         0.221698         0.243393
 C        -0.210027         0.195964         0.547702
 C        -1.429344         0.014960         0.424286
 C        -2.859674        -0.004795         0.176174
 O        -3.204941         0.090711        -1.282025
 C        -3.629050         1.144020         0.889942
 C        -4.996839         0.727578         1.338995
 C        -5.127037         0.285524         2.770787
 O        -4.227210         0.334538         3.593469
 H         1.503156        -0.834355         0.192110
 H         1.305707         0.726692        -0.704140
 H         1.756075         0.662565         1.094683
 H        -3.285815        -0.868803         0.638858
 H        -2.905581        -0.796673        -1.623264
 H        -2.984066         1.354841         1.836983
 H        -3.747627         2.014710         0.215446
 H        -5.721481         1.575431         1.190014
 H        -5.483131         0.149818         0.544557
 H        -6.157153        -0.084838         3.113832
