19
Iteration:  4804
 C         1.076369         0.363223         0.349919
 C        -0.319263        -0.027009         0.260044
 C        -1.494807         0.083255         0.419113
 C        -2.916254        -0.001673         0.132947
 O        -3.013124        -0.217322        -1.290567
 C        -3.616134         1.282975         0.881489
 C        -5.046744         1.055782         1.480926
 C        -5.040422         0.104085         2.729329
 O        -4.282255         0.342412         3.645734
 H         1.828835        -0.416878         0.048959
 H         1.301564         1.251588        -0.139534
 H         1.511638         0.419527         1.422151
 H        -3.187975        -0.983532         0.644294
 H        -2.192633        -0.424602        -1.711456
 H        -2.840557         1.508816         1.760655
 H        -3.635702         2.254397         0.356250
 H        -5.488100         2.049416         1.750815
 H        -5.627944         0.556004         0.643714
 H        -5.641532        -0.835959         2.667807
