19
Iteration:  2969charge 0 multiplicity 1
 C         1.315475         0.000513         0.142401
 C        -0.106450         0.291573         0.012560
 C        -1.285816         0.328120        -0.183647
 C        -2.700462        -0.114251         0.010790
 O        -3.774959         0.673332        -0.638331
 C        -2.945641        -0.219202         1.545365
 C        -4.438990        -0.475205         1.836090
 C        -5.313488         0.713372         2.448982
 O        -5.016638         1.652402         3.188982
 H         1.626870        -0.209428         1.195105
 H         1.504647        -0.841707        -0.484571
 H         1.834226         0.821707        -0.342334
 H        -2.858864        -1.154835        -0.354910
 H        -3.979398         1.379261         0.000008
 H        -2.265276        -0.882339         2.104969
 H        -2.602621         0.767723         1.854371
 H        -4.860525        -0.776472         0.887406
 H        -4.640937        -1.377059         2.484713
 H        -6.405213         0.552898         2.253593
