19
Iteration:  4234
 C         1.340466         0.287426        -0.614724
 C        -0.012634         0.451204         0.094579
 C        -1.182538         0.210048         0.290703
 C        -2.484615         0.087019         0.828097
 O        -3.415520        -0.586783        -0.082671
 C        -3.215320         1.357037         1.567285
 C        -4.716822         1.333988         1.344665
 C        -5.486658         0.323320         2.042751
 O        -5.152392        -0.272133         3.055284
 H         2.088763         0.653062         0.111251
 H         1.624425        -0.686266        -0.957326
 H         1.467605         0.840783        -1.572190
 H        -2.486843        -0.621388         1.645147
 H        -2.902265        -0.704124        -0.908285
 H        -3.017040         1.239186         2.650314
 H        -2.924048         2.398576         1.358857
 H        -5.150322         2.239820         1.744098
 H        -5.004219         1.276430         0.323815
 H        -6.524502         0.189126         1.593193
