19
Iteration:  1999
 C         1.382577        -0.279588        -0.064743
 C         0.034147         0.013160         0.129952
 C        -1.133073         0.332938         0.270896
 C        -2.648375         0.131073         0.091080
 O        -3.288913         0.915189        -0.842120
 C        -3.208548         0.441218         1.415026
 C        -4.753261         0.033387         1.430898
 C        -5.545915         0.225268         2.610675
 O        -5.199509         1.001744         3.495372
 H         1.455588        -0.362469        -1.129834
 H         2.062843         0.547338         0.335761
 H         1.932962        -1.044581         0.453032
 H        -2.895952        -1.012723        -0.109193
 H        -2.888122         1.814457        -0.838367
 H        -2.821413        -0.083157         2.265122
 H        -3.072598         1.498894         1.696556
 H        -5.287002         0.521639         0.621893
 H        -4.852003        -0.993412         1.125424
 H        -6.362212        -0.556348         2.700398
