19
Iteration:  3763
 C         1.266699         0.367897         0.447554
 C        -0.161283         0.014424         0.339782
 C        -1.375956        -0.028817         0.077175
 C        -2.796210        -0.132052         0.138785
 O        -3.437211        -0.159683        -1.238531
 C        -3.434673         1.184177         0.896007
 C        -4.874222         0.750463         1.342200
 C        -5.110257         0.440594         2.789920
 O        -4.463287         0.482866         3.777266
 H         1.422715         0.977615        -0.440286
 H         1.333745         0.980527         1.442142
 H         1.887726        -0.533741         0.486632
 H        -3.262984        -0.982687         0.670518
 H        -2.829976        -0.589025        -1.861562
 H        -2.829358         1.364389         1.750073
 H        -3.411312         2.052227         0.187640
 H        -5.593723         1.631476         1.254269
 H        -5.257389        -0.024479         0.747186
 H        -6.209691         0.503345         2.942675
