19
Iteration:  3658charge 0 multiplicity 1
 C         1.282174         0.436711         0.155321
 C        -0.094434         0.207628         0.219254
 C        -1.273608         0.035026         0.079962
 C        -2.618062        -0.267739         0.049143
 O        -3.411722         0.073483        -1.110165
 C        -3.232965         0.390099         1.323498
 C        -4.800657         0.524225         1.330197
 C        -5.403639         0.839334         2.722235
 O        -4.822559         0.726500         3.812435
 H         1.519234         0.620568        -0.924848
 H         1.523993         1.291898         0.737796
 H         1.856997        -0.480251         0.470319
 H        -2.833491        -1.401181         0.153186
 H        -3.129970        -0.446347        -1.882022
 H        -2.851706        -0.185601         2.233838
 H        -2.718226         1.368441         1.443640
 H        -5.239746         1.253873         0.650129
 H        -5.275851        -0.390262         0.846257
 H        -6.410813         1.320703         2.664155
