19
Iteration:  2510
 C         1.180310         0.751179        -0.054810
 C        -0.183430         0.254096         0.184413
 C        -1.316905        -0.201476         0.285265
 C        -2.742915        -0.349940         0.139225
 O        -3.205087         0.838908        -0.479971
 C        -3.640342        -0.752127         1.391413
 C        -4.969729        -0.012981         1.360943
 C        -5.269388         0.831412         2.606954
 O        -4.289480         1.291314         3.165441
 H         1.138122         1.837622        -0.387941
 H         1.831413         0.617781         0.877732
 H         1.466533         0.200616        -0.969331
 H        -2.889021        -1.185742        -0.597411
 H        -2.461867         1.175815        -0.973744
 H        -3.943420        -1.757445         1.152757
 H        -3.299073        -0.458008         2.414744
 H        -5.465921         0.635392         0.538814
 H        -5.874330        -0.870477         1.383513
 H        -6.256522         1.244298         2.817298
