19
Iteration:  3546charge 0 multiplicity 1
 C         1.360922         0.382697        -0.492708
 C         0.093141        -0.019383         0.165314
 C        -1.118233        -0.178390         0.186197
 C        -2.585758        -0.199209         0.260206
 O        -3.173508         0.695148        -0.772560
 C        -3.261430         0.063430         1.641322
 C        -4.775429         0.047950         1.472320
 C        -5.632354         0.636476         2.563450
 O        -5.237076         1.227304         3.564170
 H         1.332600         0.091776        -1.530191
 H         1.507514         1.481253        -0.456873
 H         2.248125        -0.080291        -0.085150
 H        -2.993386        -1.175017        -0.106550
 H        -2.903571         1.631692        -0.782071
 H        -2.956997        -0.612164         2.410271
 H        -3.035036         1.070667         2.018008
 H        -4.828648         0.564648         0.529255
 H        -5.142320        -0.936866         1.342068
 H        -6.635323         0.159184         2.630683
