19
Iteration:  1936
 C         1.364836        -0.266139         0.392111
 C         0.009451         0.023279         0.051000
 C        -1.190191         0.253321         0.044233
 C        -2.710535         0.185303        -0.077248
 O        -3.207096         0.921048        -1.246768
 C        -3.349842         0.609951         1.230371
 C        -4.803602         0.034445         1.367866
 C        -5.476312         0.297173         2.853901
 O        -5.034132         0.730072         3.888982
 H         1.936324        -0.645336        -0.518812
 H         1.844071         0.704137         0.564396
 H         1.417816        -1.124743         1.105693
 H        -3.009620        -0.828619        -0.406250
 H        -2.728440         1.762308        -1.226112
 H        -2.596143         0.447522         2.073777
 H        -3.229336         1.738733         1.191410
 H        -5.515832         0.776485         0.853614
 H        -4.902120        -1.016865         0.926976
 H        -6.487247        -0.123043         2.988097
