19
Iteration:  3908
 C         1.219218         0.071573         0.422174
 C        -0.201486         0.362354         0.410025
 C        -1.426619         0.468896         0.308628
 C        -2.863848         0.059031         0.386104
 O        -3.423035        -0.648748        -0.678349
 C        -3.676115         1.426754         0.744380
 C        -5.049051         1.046648         1.252516
 C        -5.018010         0.416731         2.556954
 O        -4.018804        -0.046004         3.137374
 H         1.863562         0.946521         0.120671
 H         1.463408        -0.240654         1.424161
 H         1.437304        -0.854325        -0.209685
 H        -2.836144        -0.524438         1.334346
 H        -3.439332         0.007881        -1.419945
 H        -3.263678         1.922125         1.625599
 H        -3.699650         2.046035        -0.124767
 H        -5.400406         2.074304         1.436157
 H        -5.826659         0.740649         0.616792
 H        -6.013488         0.461282         3.053071
