19
Iteration:  4518charge 0 multiplicity 1
 C         1.234822         0.556369        -0.271204
 C        -0.011302        -0.014721         0.321517
 C        -1.192567        -0.189131         0.547158
 C        -2.732854        -0.042460         0.497597
 O        -3.291663        -0.147435        -0.868273
 C        -3.334826         1.263214         1.204260
 C        -4.870997         1.249972         1.314130
 C        -5.426762         0.479065         2.588839
 O        -4.754070        -0.198171         3.374816
 H         2.125892         0.442404         0.384417
 H         1.370720        -0.084906        -1.111905
 H         1.120946         1.581310        -0.763984
 H        -3.300023        -0.838356         1.075527
 H        -2.478481        -0.386549        -1.406821
 H        -2.683764         1.276179         2.100568
 H        -3.064738         2.260745         0.784297
 H        -5.379994         2.256829         1.273726
 H        -5.404176         0.673420         0.635460
 H        -6.555564         0.406227         2.682847
