19
Iteration:  2661charge 0 multiplicity 1
 C         1.398247        -0.012142         0.114116
 C        -0.046844         0.030666         0.079526
 C        -1.244850         0.215011        -0.234379
 C        -2.684535         0.024190        -0.004535
 O        -3.581064         0.766310        -0.911443
 C        -3.086470         0.271094         1.533752
 C        -4.552683        -0.271857         1.700186
 C        -5.451920         0.487796         2.659457
 O        -5.078993         1.281749         3.495911
 H         1.688797         1.009632         0.497515
 H         1.692043        -0.863097         0.750424
 H         1.770599        -0.328819        -0.898195
 H        -2.868219        -1.055130        -0.248970
 H        -3.255232         1.688138        -0.948795
 H        -2.482732        -0.215306         2.379140
 H        -2.861169         1.360980         1.688587
 H        -5.073901        -0.177596         0.765854
 H        -4.568500        -1.342985         1.875501
 H        -6.468787        -0.008030         2.776502
