19
Iteration:  4200charge 0 multiplicity 1
 C         1.282261         0.278005        -0.549031
 C        -0.110361         0.492421        -0.002956
 C        -1.241705         0.493918         0.371995
 C        -2.507564        -0.052529         0.793916
 O        -3.292388        -0.691423        -0.178603
 C        -3.201652         1.101362         1.564360
 C        -4.638619         1.291575         1.310787
 C        -5.547516         0.482044         2.155734
 O        -5.148301        -0.179852         3.072607
 H         1.948129         0.779713         0.178181
 H         1.595170        -0.771660        -0.522844
 H         1.453261         0.830722        -1.483473
 H        -2.103738        -0.809836         1.419966
 H        -3.228732        -0.079802        -0.959080
 H        -2.938412         0.749435         2.566187
 H        -2.712690         2.079376         1.331378
 H        -4.901430         2.334447         1.507340
 H        -4.870996         1.176601         0.297899
 H        -6.621419         0.294415         1.811389
