19
Iteration:  4815charge 0 multiplicity 1
 C         1.162535         0.365646         0.402902
 C        -0.288668         0.018674         0.286080
 C        -1.515979         0.096774         0.364990
 C        -2.944658         0.043021         0.156408
 O        -3.107232        -0.254539        -1.270701
 C        -3.591297         1.197872         0.911348
 C        -5.032276         1.022787         1.451932
 C        -4.977264         0.165819         2.653262
 O        -4.279020         0.325751         3.638229
 H         1.617272        -0.442628        -0.191688
 H         1.416156         1.239931        -0.113176
 H         1.443336         0.440110         1.508966
 H        -3.500830        -0.822973         0.640338
 H        -2.170477        -0.153947        -1.513139
 H        -2.995487         1.392378         1.904510
 H        -3.520588         2.056140         0.214255
 H        -5.400618         2.037366         1.779001
 H        -5.808833         0.647149         0.729789
 H        -5.631397        -0.754778         2.608469
