19
Iteration:  4778
 C         1.152003         0.381448         0.283719
 C        -0.273189        -0.023701         0.330981
 C        -1.474594        -0.077505         0.487879
 C        -2.950921         0.034728         0.205674
 O        -3.027374        -0.013610        -1.245341
 C        -3.650505         1.215726         0.753347
 C        -5.000369         0.919615         1.422829
 C        -5.023609         0.176818         2.731577
 O        -4.321967         0.325672         3.708750
 H         1.725414        -0.545785        -0.005705
 H         1.470042         1.155434        -0.498313
 H         1.773774         0.585562         1.210505
 H        -3.421829        -0.976155         0.577404
 H        -2.362146        -0.575248        -1.617708
 H        -3.042836         1.903903         1.393274
 H        -3.891126         1.904146        -0.090896
 H        -5.347308         1.906755         1.741365
 H        -5.708579         0.386254         0.720222
 H        -5.932680        -0.551465         2.745303
