19
Iteration:  3350
 C         1.222222        -0.139327         0.133545
 C        -0.229335         0.048486        -0.043260
 C        -1.386492         0.140526        -0.270595
 C        -2.789720         0.163758        -0.018277
 O        -3.439975         1.348418        -0.603041
 C        -2.992154         0.027576         1.536834
 C        -4.279614        -0.668062         2.088994
 C        -5.372169         0.303074         2.593639
 O        -5.159112         1.451911         2.941139
 H         1.471965        -1.173909         0.021988
 H         1.849590         0.502053        -0.511219
 H         1.610212        -0.012847         1.171249
 H        -3.227940        -0.720199        -0.512324
 H        -2.931714         1.964010        -0.043664
 H        -2.037988        -0.456964         1.820298
 H        -2.922877         1.071861         1.941835
 H        -4.781350        -1.296969         1.273655
 H        -4.131625        -1.311653         2.890108
 H        -6.407979        -0.086836         2.437760
