19
Iteration:   428charge 0 multiplicity 1
 C         1.443655        -0.297733        -0.505794
 C         0.043826        -0.200268        -0.120853
 C        -1.087566         0.063589         0.219670
 C        -2.532554         0.186728         0.230157
 O        -2.938098         1.231199        -0.752629
 C        -3.147416         0.548440         1.601898
 C        -4.676066         0.703440         1.559235
 C        -5.307540         0.678093         2.976045
 O        -6.168173        -0.150476         3.320316
 H         2.111523         0.187028         0.309986
 H         1.729497        -1.329343        -0.535144
 H         1.693532         0.130571        -1.529166
 H        -2.936135        -0.772501        -0.047106
 H        -2.196403         1.852668        -0.536711
 H        -2.766358        -0.238348         2.343618
 H        -2.600691         1.460085         1.842082
 H        -4.918798         1.545904         0.948832
 H        -5.180000        -0.067533         1.056372
 H        -5.111076         1.482426         3.713757
