19
Iteration:  2109charge 0 multiplicity 1
 C         1.355486         0.329463        -0.396848
 C         0.019861        -0.184270         0.013465
 C        -1.204049        -0.254474         0.062935
 C        -2.570184         0.006413         0.331394
 O        -3.036872         1.136052        -0.431281
 C        -3.172945        -0.199561         1.780040
 C        -4.760226        -0.196427         1.497684
 C        -5.617654         0.636234         2.320545
 O        -5.369950         1.295027         3.305844
 H         1.381393         0.548763        -1.468391
 H         1.591386         1.292210         0.160003
 H         2.100445        -0.472056        -0.139083
 H        -3.200086        -0.785670        -0.177313
 H        -2.391998         1.855489        -0.305298
 H        -3.021415        -1.126213         2.325341
 H        -2.834142         0.713992         2.284709
 H        -5.010458        -0.013651         0.433972
 H        -4.980303        -1.321254         1.610753
 H        -6.737281         0.533958         2.154948
