19
Iteration:  1154
 C         1.592694        -0.165546        -0.210082
 C         0.127441        -0.049718        -0.276422
 C        -1.088359         0.002708         0.008179
 C        -2.694356         0.212670         0.122136
 O        -2.985572         1.368401        -0.740675
 C        -3.223570         0.193562         1.538441
 C        -4.721494         0.255332         1.570673
 C        -5.395325        -0.003874         2.862687
 O        -5.980841         0.823929         3.534519
 H         1.771274        -0.920470         0.629524
 H         2.069441        -0.422180        -1.142223
 H         2.015970         0.829244         0.116387
 H        -3.076934        -0.770962        -0.369449
 H        -2.817921         2.224110        -0.258517
 H        -2.562670        -0.560692         1.979685
 H        -2.711735         1.058887         2.018904
 H        -5.023379         1.291671         1.094898
 H        -5.166481        -0.355476         0.748406
 H        -5.232493        -1.026052         3.267082
