19
Iteration:  4414
 C         1.396799         0.338792        -0.289373
 C        -0.042438         0.135597        -0.015347
 C        -1.191612         0.373590         0.226489
 C        -2.484061         0.126117         0.713023
 O        -3.615840        -0.354735        -0.105999
 C        -3.253515         1.374066         1.262201
 C        -4.736487         1.314314         1.364730
 C        -5.496467         0.388496         2.393013
 O        -4.927311        -0.531777         2.933922
 H         1.985816         0.228153         0.615888
 H         1.853415        -0.598259        -0.786879
 H         1.664799         1.206989        -0.862676
 H        -2.293561        -0.603780         1.536751
 H        -3.263156        -1.162623        -0.572471
 H        -2.628226         1.664893         2.120923
 H        -3.129269         2.185222         0.526834
 H        -5.033298         2.314186         1.588251
 H        -5.253421         1.203263         0.358431
 H        -6.532808         0.814133         2.552466
