19
Iteration:   990
 C         1.443923        -0.221639        -0.371453
 C         0.047739        -0.077083        -0.257259
 C        -1.130557         0.001184        -0.059417
 C        -2.527505         0.220514         0.168810
 O        -3.057449         1.312468        -0.530768
 C        -2.975079         0.311658         1.598744
 C        -4.497139         0.505208         1.747418
 C        -5.215058         0.249045         3.031686
 O        -6.420374         0.447844         3.150062
 H         1.798221        -0.619349         0.606965
 H         1.721554        -0.897672        -1.199612
 H         2.007917         0.716662        -0.568694
 H        -2.894407        -0.830056        -0.258954
 H        -2.594248         1.352172        -1.350545
 H        -2.810151        -0.630988         2.136088
 H        -2.399780         0.961378         2.295128
 H        -4.613084         1.593578         1.444167
 H        -4.853631        -0.081034         0.955304
 H        -4.524942         0.161539         3.900907
