19
Iteration:  2298
 C         0.983483         0.247933         0.606776
 C        -0.296198         0.213055        -0.061829
 C        -1.491974         0.130453        -0.224728
 C        -3.006964        -0.036833        -0.034918
 O        -3.602003         1.302553        -0.040805
 C        -3.138782        -0.822199         1.331081
 C        -4.582671        -0.769419         1.879239
 C        -5.039300         0.753741         2.183774
 O        -4.281692         1.647410         2.591906
 H         1.734068         0.969066         0.185003
 H         0.870336         0.560804         1.604138
 H         1.577926        -0.689551         0.549279
 H        -3.317907        -0.645300        -0.872972
 H        -3.099077         1.747191         0.646961
 H        -3.032731        -1.866064         1.099301
 H        -2.435945        -0.418425         2.035298
 H        -5.320220        -1.224600         1.195547
 H        -4.868355        -1.240375         2.907736
 H        -6.094300         0.808830         1.827526
