19
Iteration:  1709
 C         1.197543         0.191854         0.588596
 C        -0.029618        -0.071266         0.021780
 C        -1.248195        -0.015100        -0.171062
 C        -2.710049        -0.055998        -0.128650
 O        -3.368764         1.041085        -0.915375
 C        -3.228185         0.119550         1.306167
 C        -4.705255         0.465420         1.291838
 C        -5.329502         0.829986         2.707688
 O        -4.929010         0.262213         3.744734
 H         2.082858        -0.447630         0.236386
 H         1.493957         1.186969         0.314344
 H         1.223676         0.244129         1.723585
 H        -3.105560        -0.986145        -0.695973
 H        -3.056638         1.042616        -1.860214
 H        -3.046540        -0.928274         1.708641
 H        -2.716094         0.986838         1.826892
 H        -4.722696         1.193577         0.441952
 H        -5.448145        -0.368011         1.046294
 H        -6.304340         1.389732         2.770155
