19
Iteration:  1378
 C         1.371377        -0.021841         0.246984
 C        -0.091576         0.104953        -0.157858
 C        -1.264802        -0.138761        -0.282712
 C        -2.657545         0.111321        -0.241338
 O        -2.896272         1.509663        -0.637785
 C        -3.301237        -0.225890         1.245858
 C        -4.736039         0.050662         1.581413
 C        -5.104431         0.161485         3.073188
 O        -5.746047         1.045643         3.515859
 H         1.691249        -0.975858         0.608445
 H         1.967395         0.377302        -0.701948
 H         1.584722         0.700589         1.039051
 H        -3.127886        -0.492068        -1.129951
 H        -2.905364         2.075473         0.122316
 H        -3.036343        -1.256744         1.493564
 H        -2.805740         0.624709         1.673602
 H        -4.938999         0.835224         0.870494
 H        -5.169518        -0.841901         1.102102
 H        -4.595484        -0.655705         3.458324
