19
Iteration:  4357charge 0 multiplicity 1
 C         1.191408         0.291009        -0.388320
 C        -0.221129         0.346254         0.060506
 C        -1.318383         0.149357         0.568720
 C        -2.738031         0.068582         0.962416
 O        -3.515219        -0.501697        -0.121375
 C        -3.188264         1.483442         1.270680
 C        -4.675797         1.488002         1.477318
 C        -5.278492         0.262265         1.983712
 O        -4.694939        -0.426720         2.767779
 H         2.026501         0.535445         0.260414
 H         1.318075        -0.583514        -0.988873
 H         1.351256         1.098956        -1.161483
 H        -2.677274        -0.534189         1.858353
 H        -2.963875        -1.225046        -0.457070
 H        -2.529395         1.734952         2.103861
 H        -2.906494         2.072526         0.416098
 H        -4.871498         2.151667         2.266829
 H        -5.195962         1.970096         0.579917
 H        -6.451228         0.244361         1.740800
