19
Iteration:  3323charge 0 multiplicity 1
 C         1.260090        -0.040353         0.135795
 C        -0.154751        -0.232812         0.060641
 C        -1.319042         0.108179        -0.174219
 C        -2.842002         0.259056        -0.007316
 O        -3.622931         1.356174        -0.558200
 C        -2.988961        -0.034112         1.458206
 C        -4.269558        -0.537160         2.028862
 C        -5.361226         0.356268         2.450000
 O        -5.095720         1.412793         2.965062
 H         1.769268        -1.072763        -0.082631
 H         1.600114         0.572001        -0.789921
 H         1.744524         0.491661         1.002464
 H        -3.094029        -0.704498        -0.485153
 H        -3.476635         1.954217         0.196348
 H        -2.113601        -0.661497         1.527568
 H        -2.631768         0.859094         1.966528
 H        -4.633301        -1.342599         1.437622
 H        -4.173383        -1.090811         3.073040
 H        -6.411999        -0.064588         2.373468
