19
Iteration:  1922charge 0 multiplicity 1
 C         1.310272        -0.185867         0.442347
 C        -0.087751        -0.085699         0.078712
 C        -1.257381         0.206042         0.034536
 C        -2.660745         0.204444        -0.196042
 O        -3.164774         0.931873        -1.271554
 C        -3.348233         0.615158         1.120518
 C        -4.761835         0.140230         1.471527
 C        -5.476479         0.324408         2.864059
 O        -4.952637         0.636451         3.936175
 H         1.924038        -0.551230        -0.340160
 H         1.710813         0.817862         0.849029
 H         1.399448        -0.799532         1.324545
 H        -2.834747        -0.907842        -0.372454
 H        -2.638848         1.752629        -1.453702
 H        -2.784363         0.259612         1.954295
 H        -3.556454         1.676216         1.121314
 H        -5.421254         0.555996         0.683168
 H        -4.968417        -0.923932         1.286713
 H        -6.565234         0.155278         2.699376
