19
Iteration:  3244
 C         1.301394         0.113281        -0.236741
 C        -0.071618         0.329368        -0.185726
 C        -1.262371         0.185592         0.101308
 C        -2.723059        -0.104460         0.279821
 O        -3.490557         1.065153        -0.121481
 C        -3.170583        -0.483469         1.727221
 C        -4.646001        -0.616593         1.761025
 C        -5.312779         0.604350         2.284045
 O        -4.984932         1.650092         2.819422
 H         1.451098        -1.032825         0.023989
 H         1.803022         0.248671        -1.207300
 H         1.815313         0.742408         0.561890
 H        -3.079069        -0.891800        -0.450690
 H        -2.983573         1.870429        -0.314273
 H        -2.691194        -1.430680         1.984545
 H        -2.744080         0.284023         2.363366
 H        -5.088668        -0.972401         0.835610
 H        -4.928951        -1.391060         2.578135
 H        -6.337280         0.590682         1.857300
