19
Iteration:  4458charge 0 multiplicity 1
 C         1.274582         0.267791        -0.258429
 C        -0.064758         0.488823         0.000471
 C        -1.164382         0.213460         0.424029
 C        -2.672421         0.051992         0.562346
 O        -3.335008        -0.465174        -0.617525
 C        -3.193007         1.281109         1.340499
 C        -4.823472         1.338835         1.475229
 C        -5.475030         0.519044         2.525742
 O        -4.948567        -0.433584         3.121634
 H         1.954807         0.134849         0.571922
 H         1.417485        -0.680648        -0.895743
 H         1.698580         1.092135        -0.782382
 H        -2.666900        -0.680980         1.357037
 H        -3.090239        -1.419946        -0.703820
 H        -2.658528         1.254964         2.307431
 H        -2.894579         2.124820         0.715513
 H        -5.025930         2.370038         1.510392
 H        -5.274084         1.047540         0.456410
 H        -6.508268         0.892043         2.733798
