19
Iteration:  4528charge 0 multiplicity 1
 C         1.234026         0.520590        -0.259047
 C        -0.022062        -0.040414         0.413233
 C        -1.281961        -0.181640         0.507394
 C        -2.778501         0.032984         0.459276
 O        -3.327326        -0.144567        -0.897871
 C        -3.303021         1.241335         1.227123
 C        -4.849249         1.162327         1.306853
 C        -5.297036         0.457949         2.534837
 O        -4.736431        -0.134485         3.425374
 H         2.176478         0.715394         0.285667
 H         1.453138         0.051346        -1.204797
 H         0.841991         1.569264        -0.333072
 H        -3.235515        -0.884323         0.957358
 H        -2.527415        -0.100993        -1.496142
 H        -3.078775         1.173776         2.311203
 H        -2.998330         2.160409         0.662730
 H        -5.445573         2.103350         1.274558
 H        -5.103134         0.612378         0.439791
 H        -6.483043         0.431247         2.574587
