19
Iteration:  4216charge 0 multiplicity 1
 C         1.327844         0.293172        -0.544951
 C         0.011374         0.468127         0.052712
 C        -1.168928         0.496450         0.281845
 C        -2.546947        -0.023220         0.858944
 O        -3.412095        -0.703408        -0.186389
 C        -3.168795         1.215278         1.616465
 C        -4.673748         1.457809         1.264077
 C        -5.542173         0.336654         2.120886
 O        -5.153156        -0.266610         3.122942
 H         2.289660         0.624024        -0.109891
 H         1.264191        -0.796711        -0.669815
 H         1.310549         0.833176        -1.549901
 H        -2.457039        -0.831261         1.688882
 H        -3.147247        -0.554208        -1.105770
 H        -3.174256         1.161069         2.719076
 H        -2.465596         1.948546         1.270647
 H        -5.022249         2.521675         1.336992
 H        -4.868222         1.116306         0.139969
 H        -6.561714         0.251710         1.689719
