19
Iteration:  4729charge 0 multiplicity 1
 C         1.202726         0.148980         0.287347
 C        -0.224833         0.195665         0.493595
 C        -1.422142         0.131168         0.371064
 C        -2.904114         0.076903         0.126257
 O        -3.195277         0.039244        -1.203215
 C        -3.608382         1.088190         0.922630
 C        -5.007913         0.715827         1.329356
 C        -5.165495         0.314776         2.785014
 O        -4.203241         0.336077         3.525040
 H         1.803221        -0.759010         0.222575
 H         1.490360         0.764884        -0.604657
 H         1.703876         0.785609         1.014397
 H        -3.256963        -0.901986         0.430104
 H        -2.915677        -0.836451        -1.591330
 H        -3.147071         1.088399         1.965174
 H        -3.450624         2.145650         0.704700
 H        -5.706922         1.587387         1.237715
 H        -5.327109        -0.159114         0.779069
 H        -6.234498        -0.054933         3.082359
