19
Iteration:   973
 C         1.524157        -0.307696        -0.412724
 C         0.008814         0.114162        -0.115870
 C        -1.176917         0.015124         0.005402
 C        -2.653862         0.115056         0.124683
 O        -3.064056         1.386869        -0.593312
 C        -2.986193         0.203477         1.683279
 C        -4.489943         0.558738         1.694863
 C        -5.142617         0.386336         3.015692
 O        -6.351673         0.369047         3.123881
 H         2.136076        -0.816538         0.371530
 H         1.559461        -1.079033        -1.193996
 H         2.210977         0.487777        -0.732069
 H        -3.175854        -0.794671        -0.079779
 H        -2.459388         1.323493        -1.322346
 H        -2.745082        -0.772475         2.177660
 H        -2.588251         1.167521         2.108687
 H        -4.681302         1.575369         1.358126
 H        -5.006335        -0.371696         1.138019
 H        -4.649136        -0.071364         3.913225
