19
Iteration:  3959
 C         1.288247         0.303785         0.471522
 C        -0.131590         0.327360         0.040100
 C        -1.338903         0.169354         0.108754
 C        -2.771580         0.173005         0.386929
 O        -3.473477        -0.754260        -0.641100
 C        -3.484580         1.433342         0.837478
 C        -4.947971         1.285808         1.367084
 C        -5.181369         0.352174         2.554948
 O        -4.375039        -0.137657         3.305932
 H         1.659302         1.309177         0.410841
 H         1.401708        -0.126611         1.507879
 H         1.889836        -0.315141        -0.161757
 H        -2.795459        -0.466377         1.307745
 H        -3.110963        -0.583527        -1.528373
 H        -3.000605         1.654226         1.779709
 H        -3.365777         2.170151         0.015551
 H        -5.291302         2.304698         1.647652
 H        -5.713193         1.037501         0.488408
 H        -6.273647         0.427073         2.863114
