19
Iteration:   885charge 0 multiplicity 1
 C         1.507194        -0.326638        -0.294514
 C         0.057854        -0.083853        -0.254913
 C        -1.111947        -0.008440         0.023056
 C        -2.554988         0.162853         0.055942
 O        -2.919587         1.492896        -0.530893
 C        -3.141209         0.242824         1.506486
 C        -4.697543         0.473340         1.524992
 C        -5.319343         0.720203         2.916423
 O        -6.154320         0.050283         3.501783
 H         1.837378        -0.474941         0.795808
 H         1.682942        -1.249370        -0.837959
 H         2.007406         0.574546        -0.728145
 H        -2.929817        -0.770727        -0.547446
 H        -2.176324         1.686300        -1.097597
 H        -3.007832        -0.723887         2.049890
 H        -2.775491         1.186191         2.035865
 H        -5.046987         1.255131         0.912802
 H        -5.403552        -0.299495         1.040355
 H        -4.920210         1.708362         3.296873
