19
Iteration:   909charge 0 multiplicity 1
 C         1.660509        -0.353145        -0.384431
 C         0.107887        -0.197775        -0.186335
 C        -1.069035         0.120513         0.080671
 C        -2.537849         0.259818         0.136231
 O        -3.074610         1.431410        -0.630051
 C        -3.192407         0.224113         1.570418
 C        -4.746967         0.491290         1.567861
 C        -5.221574         0.670325         2.989426
 O        -6.241112         0.113217         3.378438
 H         2.170755        -0.517351         0.583821
 H         1.923100        -1.204151        -1.099469
 H         1.969699         0.616439        -0.785092
 H        -2.834030        -0.712718        -0.477100
 H        -2.387590         1.818048        -1.176432
 H        -3.112779        -0.877694         1.865797
 H        -2.707928         0.931102         2.288519
 H        -4.999714         1.300633         0.937770
 H        -5.471638        -0.215034         1.140692
 H        -4.548602         1.314568         3.642272
