19
Iteration:  3984charge 0 multiplicity 1
 C         1.301872         0.469877         0.321331
 C        -0.107323         0.220434         0.190612
 C        -1.365245         0.174829         0.138967
 C        -2.726275         0.002197         0.508514
 O        -3.638905        -0.550268        -0.657391
 C        -3.341366         1.377953         0.813453
 C        -4.764807         1.213213         1.328014
 C        -5.194274         0.433981         2.516817
 O        -4.535954        -0.191666         3.369157
 H         1.558329         1.565886         0.296899
 H         1.633584         0.038108         1.246658
 H         1.879833        -0.063903        -0.503258
 H        -2.849228        -0.737602         1.384874
 H        -3.078936        -1.050554        -1.285662
 H        -2.778652         1.886335         1.598641
 H        -3.286221         1.861217        -0.150812
 H        -5.213653         2.226809         1.401301
 H        -5.369996         0.770730         0.435768
 H        -6.327883         0.348759         2.554916
