19
Iteration:  3015
 C         1.332142         0.342832        -0.010458
 C        -0.148794         0.135038        -0.050952
 C        -1.334779         0.020191         0.042905
 C        -2.748702        -0.177763         0.108509
 O        -3.685691         0.857500        -0.477636
 C        -3.115807        -0.362404         1.645131
 C        -4.627797        -0.530458         1.906400
 C        -5.268852         0.778658         2.243281
 O        -4.780396         1.599067         3.005134
 H         1.452319         0.064346         1.019744
 H         1.925530        -0.218551        -0.657153
 H         1.519311         1.368368        -0.208436
 H        -3.023298        -1.087665        -0.507306
 H        -3.164999         1.698857        -0.379808
 H        -2.394238        -1.066531         2.064777
 H        -2.857022         0.569925         2.182779
 H        -5.196575        -1.133645         1.110606
 H        -4.631887        -1.240780         2.816245
 H        -6.233215         1.047819         1.663170
