19
Iteration:  4187charge 0 multiplicity 1
 C         1.239936         0.373124        -0.452444
 C        -0.108425         0.469050        -0.163051
 C        -1.163786         0.340854         0.314264
 C        -2.453767        -0.045933         0.866906
 O        -3.209067        -0.656761        -0.249627
 C        -3.187702         1.076041         1.620827
 C        -4.680865         1.243234         1.282451
 C        -5.594743         0.467821         2.160819
 O        -5.159200        -0.139628         3.103088
 H         1.888097         0.863176         0.262934
 H         1.501912        -0.737378        -0.553774
 H         1.416989         0.650903        -1.480787
 H        -2.499540        -0.877385         1.549433
 H        -3.408830        -0.013363        -0.930078
 H        -3.214648         1.069842         2.715401
 H        -2.634541         2.042636         1.401435
 H        -5.024524         2.243193         1.691800
 H        -5.074169         1.215593         0.296681
 H        -6.669503         0.875118         2.016589
