19
Iteration:  4481
 C         1.274022         0.389796        -0.273992
 C        -0.162965         0.305160        -0.043611
 C        -1.264572         0.188467         0.530822
 C        -2.748045        -0.135364         0.680147
 O        -3.133137        -0.246748        -0.694281
 C        -3.335506         1.150362         1.205039
 C        -4.798891         1.311918         1.444317
 C        -5.394272         0.542994         2.532532
 O        -4.900283        -0.356599         3.233650
 H         1.845003         0.150230         0.634804
 H         1.468246        -0.562769        -0.888752
 H         1.772789         1.233284        -0.669859
 H        -2.811087        -1.013009         1.328024
 H        -2.974401        -1.125717        -1.089734
 H        -2.965023         1.393541         2.220095
 H        -2.984813         1.793994         0.375812
 H        -4.822608         2.363308         1.599764
 H        -5.331274         1.202730         0.455751
 H        -6.500563         0.868476         2.681002
