19
Iteration:  2849charge 0 multiplicity 1
 C         1.338317         0.122884        -0.152872
 C        -0.048065        -0.133264         0.055210
 C        -1.242831        -0.244239        -0.025266
 C        -2.752830        -0.022602        -0.028613
 O        -3.013421         0.950332        -1.032277
 C        -3.322335         0.532269         1.380154
 C        -4.565308        -0.263486         1.887821
 C        -5.311872         0.279773         3.164728
 O        -5.478255         1.451956         3.331463
 H         1.593696         0.677339         0.744160
 H         1.960044        -0.680270        -0.204089
 H         1.558324         0.657629        -1.036942
 H        -3.206368        -0.968779        -0.259617
 H        -2.858771         0.386094        -1.828800
 H        -2.534002         0.614682         2.150043
 H        -3.662790         1.553147         1.223480
 H        -5.272434        -0.393650         0.977249
 H        -4.307359        -1.340660         2.186686
 H        -5.559594        -0.419226         4.053626
