19
Iteration:  2940charge 0 multiplicity 1
 C         1.301264        -0.084704         0.167339
 C        -0.047628         0.311267        -0.110155
 C        -1.227970         0.307992        -0.129993
 C        -2.669903        -0.062868         0.042314
 O        -3.725532         0.720262        -0.765687
 C        -3.074436        -0.001569         1.537033
 C        -4.494278        -0.420050         1.926071
 C        -5.405622         0.524137         2.666517
 O        -4.981703         1.575352         3.099079
 H         1.434641        -0.059029         1.233612
 H         1.482213        -1.100399        -0.216254
 H         1.899881         0.650245        -0.358680
 H        -2.842748        -1.092345        -0.304970
 H        -3.306435         1.517664        -1.107370
 H        -2.332442        -0.617950         2.102013
 H        -2.781193         1.046494         1.816340
 H        -4.987884        -0.990270         0.985143
 H        -4.366384        -1.332007         2.578697
 H        -6.479445         0.148171         2.903480
