19
Iteration:  3265charge 0 multiplicity 1
 C         1.321404        -0.025657        -0.062521
 C        -0.090965         0.399817        -0.258020
 C        -1.276571         0.110457        -0.122739
 C        -2.757544         0.005980         0.201413
 O        -3.506386         1.113092        -0.209285
 C        -3.012333        -0.355540         1.710161
 C        -4.560050        -0.584116         1.896880
 C        -5.505086         0.602023         2.297014
 O        -4.997377         1.516744         2.866579
 H         1.382321        -1.178458         0.139736
 H         1.879514         0.205860        -0.950784
 H         1.640184         0.602068         0.823223
 H        -3.003043        -1.028476        -0.362157
 H        -2.797823         1.798209        -0.130508
 H        -2.400955        -1.201923         1.985841
 H        -2.756464         0.477085         2.370410
 H        -4.883943        -0.995054         0.870203
 H        -4.806932        -1.386018         2.791858
 H        -6.633583         0.591605         2.159382
