19
Iteration:  3263
 C         1.348904        -0.018872        -0.073672
 C        -0.107779         0.422103        -0.270423
 C        -1.293896         0.099929        -0.091574
 C        -2.739488        -0.007280         0.214524
 O        -3.512134         1.113386        -0.198838
 C        -3.008411        -0.377189         1.702772
 C        -4.574454        -0.598205         1.902423
 C        -5.499598         0.618834         2.276900
 O        -4.993778         1.527709         2.863199
 H         1.344160        -1.070349         0.126972
 H         1.874699         0.173352        -0.961320
 H         1.720794         0.532568         0.789221
 H        -2.972011        -1.027729        -0.352852
 H        -2.782062         1.778213        -0.159090
 H        -2.425137        -1.228858         2.005670
 H        -2.787278         0.459298         2.400152
 H        -4.933576        -0.935091         0.833681
 H        -4.823170        -1.403809         2.727168
 H        -6.639598         0.591158         2.190176
