19
Iteration:  1533
 C         1.487391        -0.297605        -0.343782
 C         0.133884         0.005686         0.019997
 C        -1.059428         0.352535         0.192210
 C        -2.503781         0.245115         0.241084
 O        -3.156061         1.031785        -0.815677
 C        -3.163656         0.470229         1.579841
 C        -4.683538         0.370312         1.435017
 C        -5.625971         0.017700         2.633647
 O        -5.736643         0.648953         3.659298
 H         1.592670        -1.355060        -0.736364
 H         1.755281         0.248298        -1.282103
 H         2.326987        -0.029870         0.360181
 H        -2.819540        -0.788330         0.037517
 H        -2.376809         1.576604        -1.147714
 H        -2.861126        -0.216558         2.374532
 H        -2.860900         1.389203         2.126218
 H        -5.218210         1.233463         0.965321
 H        -4.835631        -0.491251         0.668366
 H        -6.463118        -0.663471         2.231720
