19
Iteration:  3451
 C         1.395587        -0.055045        -0.332332
 C         0.020916         0.044172         0.132196
 C        -1.180114         0.080420         0.051772
 C        -2.649312         0.016315         0.178844
 O        -3.401438         1.137879        -0.506793
 C        -3.124062         0.001792         1.559816
 C        -4.576844        -0.399783         1.670017
 C        -5.406703         0.339305         2.732063
 O        -5.428124         1.516208         3.071871
 H         1.410683        -0.749507        -1.220752
 H         1.680605         0.918168        -0.722127
 H         2.249065        -0.379501         0.330749
 H        -2.922003        -0.941113        -0.325898
 H        -2.700466         1.786136        -0.709503
 H        -2.466489        -0.710406         2.160649
 H        -2.935217         1.037451         1.904830
 H        -5.167764        -0.071155         0.735321
 H        -4.579333        -1.477666         1.842453
 H        -6.075373        -0.413559         3.230697
