19
Iteration:  1584
 C         1.445999        -0.131122        -0.330100
 C         0.030860         0.012239         0.018677
 C        -1.098191         0.067322         0.341454
 C        -2.552815         0.159777         0.234082
 O        -2.979403         1.002591        -0.740819
 C        -3.345747         0.561622         1.502311
 C        -4.890283         0.316635         1.328674
 C        -5.677025         0.230653         2.528515
 O        -5.290077         0.551863         3.622433
 H         1.734774        -1.070221        -0.665559
 H         1.879310         0.577534        -1.062475
 H         1.988806         0.005076         0.557979
 H        -2.944289        -0.917875        -0.056944
 H        -3.012016         1.860070        -0.256378
 H        -3.005593         0.089405         2.405430
 H        -3.311102         1.628788         1.774234
 H        -5.299909         1.108910         0.729650
 H        -5.055682        -0.571126         0.736337
 H        -6.618482        -0.436394         2.433881
