19
Iteration:  1572
 C         1.498466        -0.191488        -0.324210
 C         0.074452         0.066245        -0.014339
 C        -1.086375         0.082202         0.305916
 C        -2.592664         0.113486         0.333335
 O        -3.030718         1.040578        -0.771915
 C        -3.344871         0.603678         1.575569
 C        -4.787032         0.329523         1.272042
 C        -5.623127         0.109201         2.551436
 O        -5.408976         0.600341         3.642883
 H         1.521191        -1.183224        -0.703208
 H         1.689739         0.527686        -1.145521
 H         2.205852        -0.056831         0.454244
 H        -2.896591        -0.944106        -0.084893
 H        -3.190838         1.924064        -0.462102
 H        -3.074380        -0.071698         2.419372
 H        -2.968233         1.625573         1.651732
 H        -5.332490         1.139657         0.804734
 H        -4.921732        -0.480214         0.607093
 H        -6.668504        -0.336644         2.316446
