19
Iteration:   564charge 0 multiplicity 1
 C         1.400220        -0.423441         0.104937
 C        -0.046478        -0.276319        -0.061065
 C        -1.225901        -0.057964        -0.016184
 C        -2.717205         0.352720        -0.080709
 O        -2.992425         1.568945        -0.793571
 C        -3.224670         0.704804         1.290202
 C        -4.760441         0.634484         1.466272
 C        -5.011486         0.519404         3.024794
 O        -5.814370        -0.271011         3.526310
 H         1.679690         0.004394         1.060093
 H         1.622420        -1.590166         0.147999
 H         2.019589        -0.002224        -0.707140
 H        -3.125312        -0.563178        -0.481433
 H        -2.981803         1.329479        -1.740476
 H        -2.750286         0.028321         1.977689
 H        -2.779516         1.722828         1.677601
 H        -5.201482         1.649744         1.212614
 H        -5.138849        -0.355421         0.967943
 H        -4.432496         1.303341         3.597552
