19
Iteration:  4838charge 0 multiplicity 1
 C         1.225673         0.336159         0.456084
 C        -0.264108         0.239174         0.402929
 C        -1.453423         0.008734         0.308409
 C        -2.843388        -0.111470         0.178228
 O        -3.387995        -0.200766        -1.133086
 C        -3.524077         1.213485         0.821627
 C        -4.967746         1.036361         1.382721
 C        -5.013054         0.114068         2.648791
 O        -4.256392         0.326037         3.567943
 H         1.457254        -0.520846        -0.189889
 H         1.705198         1.191292         0.028724
 H         1.596594         0.180751         1.464655
 H        -3.255938        -1.033401         0.628645
 H        -2.842858         0.360450        -1.711232
 H        -2.968424         1.609628         1.727857
 H        -3.550630         1.994332         0.029635
 H        -5.456496         2.009795         1.639368
 H        -5.561154         0.646892         0.552485
 H        -5.718197        -0.775499         2.663589
