19
Iteration:  3633charge 0 multiplicity 1
 C         1.530783         0.534331         0.028165
 C         0.022244        -0.013250         0.030800
 C        -1.188263        -0.015522         0.099486
 C        -2.673926        -0.282059         0.140285
 O        -3.347438         0.218938        -1.085570
 C        -3.320597         0.257192         1.410878
 C        -4.954858         0.417974         1.409276
 C        -5.447820         0.955681         2.716155
 O        -4.953111         0.780119         3.811525
 H         1.771113         0.810604        -0.961851
 H         1.335767         1.473848         0.541617
 H         2.313998        -0.014374         0.476951
 H        -2.920183        -1.423972         0.093730
 H        -2.784550        -0.152001        -1.792626
 H        -2.920415        -0.282363         2.218548
 H        -2.879380         1.240444         1.560788
 H        -5.464449         1.036900         0.611032
 H        -5.733365        -0.483006         1.221150
 H        -6.522139         1.290930         2.578192
