19
Iteration:  2532
 C         1.173113         0.760787        -0.081430
 C        -0.148983         0.177480         0.219642
 C        -1.292062        -0.258295         0.213126
 C        -2.739986        -0.465022         0.056848
 O        -3.298721         0.882698        -0.411917
 C        -3.533352        -0.689845         1.398727
 C        -4.952724        -0.050994         1.354674
 C        -5.261495         0.844196         2.521057
 O        -4.404568         1.327144         3.272266
 H         1.187641         1.884032        -0.298981
 H         1.897607         0.655780         0.819570
 H         1.519526         0.315824        -1.038900
 H        -2.920041        -1.305005        -0.629065
 H        -2.504928         1.321542        -0.825061
 H        -3.643332        -1.756034         1.560591
 H        -3.116280        -0.039794         2.233869
 H        -4.734209         0.803941         0.576531
 H        -6.057235        -0.330002         1.022823
 H        -6.296935         1.031082         2.808896
