19
Iteration:  3949charge 0 multiplicity 1
 C         1.264946         0.258823         0.476468
 C        -0.145271         0.333857         0.071749
 C        -1.330930         0.248628         0.058936
 C        -2.764821         0.090671         0.462691
 O        -3.421719        -0.801798        -0.688909
 C        -3.564666         1.464941         0.896260
 C        -4.960715         1.245767         1.389619
 C        -5.189281         0.445825         2.563432
 O        -4.293036        -0.108165         3.220980
 H         1.863122         1.169441         0.529936
 H         1.214551        -0.129304         1.531911
 H         1.823239        -0.459219        -0.121528
 H        -2.875720        -0.594345         1.366280
 H        -3.303967        -0.367624        -1.557478
 H        -2.917394         1.992061         1.604269
 H        -3.654385         2.299581         0.174583
 H        -5.379245         2.180237         1.851189
 H        -5.755164         0.945669         0.517400
 H        -6.272800         0.140592         2.726316
