19
Iteration:  3143charge 0 multiplicity 1
 C         1.115696         0.730025        -0.484278
 C        -0.267161         0.266845        -0.131883
 C        -1.283584        -0.319974         0.331614
 C        -2.670370        -0.311406         0.449437
 O        -3.129653         1.095097         0.161122
 C        -3.415677        -0.882086         1.856887
 C        -4.922092        -0.642692         1.710883
 C        -5.300064         0.846823         2.083001
 O        -4.599893         1.752595         2.472803
 H         1.768619         0.034479         0.130404
 H         1.337709         0.689898        -1.575936
 H         1.212957         1.780145        -0.077506
 H        -3.213331        -0.789982        -0.331609
 H        -2.331560         1.637410         0.187903
 H        -3.077207        -1.900454         1.837531
 H        -3.118844        -0.464913         2.810517
 H        -5.323979        -0.825322         0.696953
 H        -5.217483        -1.310541         2.538164
 H        -6.434108         1.122159         2.022926
