19
Iteration:  1651
 C         1.416112         0.094189         0.033943
 C        -0.013552         0.104544         0.247170
 C        -1.263192        -0.083867         0.163430
 C        -2.733926        -0.027421        -0.104756
 O        -2.951607         1.128226        -0.894424
 C        -3.441228         0.300201         1.329564
 C        -4.902830         0.270131         1.359431
 C        -5.519992         0.624418         2.661233
 O        -5.065576         0.357104         3.779977
 H         1.730973        -0.805884        -0.440359
 H         1.762217         0.945683        -0.573359
 H         1.882037         0.096330         1.000861
 H        -3.151208        -1.031096        -0.573707
 H        -2.419545         1.164974        -1.693096
 H        -2.965385        -0.387222         1.961621
 H        -2.937284         1.218820         1.631176
 H        -5.383972         0.886311         0.633763
 H        -5.370745        -0.698362         1.312800
 H        -6.370388         1.206473         2.482660
