19
Iteration:  1477charge 0 multiplicity 1
 C         1.563174        -0.248454        -0.198741
 C         0.128184         0.096968        -0.123811
 C        -1.071063         0.105316         0.089581
 C        -2.596047         0.194479         0.126405
 O        -3.069343         1.283823        -0.682406
 C        -3.217989         0.352670         1.632464
 C        -4.773910         0.268793         1.417493
 C        -5.545043        -0.057371         2.710075
 O        -5.718608         0.804701         3.567027
 H         1.666973        -1.329698        -0.210552
 H         1.916841         0.174425        -1.211722
 H         2.193060         0.172553         0.590309
 H        -3.086481        -0.708434        -0.328663
 H        -3.274723         0.836070        -1.512701
 H        -2.799444        -0.337041         2.327298
 H        -3.171677         1.382446         1.957614
 H        -5.093224         1.244078         1.036886
 H        -5.087807        -0.528384         0.620949
 H        -5.523733        -1.094991         2.923267
