19
Iteration:  1134charge 0 multiplicity 1
 C         1.579513        -0.156045        -0.304053
 C         0.129101        -0.107458        -0.172534
 C        -0.999055         0.082403         0.012424
 C        -2.448629         0.169065         0.003425
 O        -2.984692         1.287465        -0.663709
 C        -3.276816         0.245390         1.486948
 C        -4.841363         0.364948         1.461467
 C        -5.371521         0.055198         2.939943
 O        -6.102035         0.762589         3.627129
 H         2.027847        -0.918007         0.452706
 H         1.845753        -0.471148        -1.299181
 H         2.061396         0.851841        -0.142685
 H        -2.793655        -0.768499        -0.493816
 H        -2.557868         2.156526        -0.410569
 H        -2.933318        -0.753869         1.943792
 H        -2.828405         0.988950         2.264517
 H        -5.426586         1.432072         1.229889
 H        -5.287281        -0.438223         0.880485
 H        -5.008766        -0.956104         3.207921
