19
Iteration:   689
 C         1.220533        -0.584693         0.370275
 C        -0.087531        -0.223690        -0.020362
 C        -1.229125         0.247609        -0.146729
 C        -2.711351         0.402890        -0.232553
 O        -3.186377         1.594313        -0.796995
 C        -3.147304         0.372272         1.281421
 C        -4.689473         0.405191         1.433774
 C        -4.969115         0.677240         2.865692
 O        -5.519048        -0.137851         3.574525
 H         1.346140        -0.296837         1.463141
 H         1.363409        -1.626559         0.283220
 H         1.984518        -0.038257        -0.223684
 H        -3.130652        -0.407064        -0.825281
 H        -3.129042         2.322524        -0.181496
 H        -2.937012        -0.630499         1.763116
 H        -2.715498         1.219155         1.798567
 H        -5.263557         1.246855         0.828931
 H        -5.248855        -0.562063         1.104966
 H        -4.640019         1.652757         3.095914
