19
Iteration:  2623
 C         1.308116         0.288890         0.093846
 C        -0.126766         0.075282        -0.017662
 C        -1.300890        -0.142623        -0.019385
 C        -2.752828        -0.227881        -0.075200
 O        -3.367318         0.927251        -0.892499
 C        -3.178469         0.004148         1.455938
 C        -4.661715        -0.245566         1.721194
 C        -5.418089         0.736390         2.564505
 O        -4.908951         1.234148         3.537302
 H         1.550187         1.268678         0.442822
 H         1.674152        -0.217711         0.990169
 H         1.970944         0.201914        -0.731254
 H        -3.217388        -1.136899        -0.499519
 H        -3.096998         1.682765        -0.371420
 H        -2.477851        -0.640041         2.024314
 H        -2.921487         1.077358         1.829286
 H        -5.205395        -0.453937         0.709153
 H        -4.710027        -1.214063         2.395725
 H        -6.584946         0.752567         2.378745
