19
Iteration:   381charge 0 multiplicity 1
 C         1.432189        -0.158745        -0.503168
 C         0.028320        -0.101568        -0.100584
 C        -1.154239        -0.227143         0.241755
 C        -2.552988         0.233381         0.118289
 O        -2.750814         1.371955        -0.705050
 C        -3.152191         0.475129         1.604817
 C        -4.655876         0.474870         1.605428
 C        -5.304663         0.639661         2.969019
 O        -6.259827         0.054982         3.371272
 H         2.078536         0.407991         0.171812
 H         1.798484        -1.204333        -0.591671
 H         1.511951         0.293425        -1.511664
 H        -3.132279        -0.686250        -0.166010
 H        -2.549015         1.043687        -1.584693
 H        -2.673948        -0.451709         2.167975
 H        -2.634343         1.367413         1.965499
 H        -5.073683         1.292177         1.083836
 H        -5.089844        -0.324498         1.080778
 H        -4.787331         1.148822         3.682128
