19
Iteration:  2383
 C         1.022136         0.417440         0.653636
 C        -0.319310         0.264526         0.046348
 C        -1.499538         0.089052        -0.228969
 C        -2.947925        -0.095810        -0.101745
 O        -3.663863         1.056521        -0.424870
 C        -3.284444        -0.832011         1.361814
 C        -4.764380        -0.552651         1.819599
 C        -4.871037         0.887813         2.191550
 O        -4.134051         1.434903         2.991692
 H         1.463734         1.413942         0.374616
 H         0.878098         0.460986         1.809144
 H         1.760547        -0.405574         0.364713
 H        -3.209674        -0.650011        -1.011726
 H        -3.257144         1.855606        -0.005329
 H        -3.278375        -1.977611         1.299487
 H        -2.520660        -0.607042         2.121598
 H        -5.464344        -0.693610         0.969637
 H        -5.181893        -1.207725         2.667991
 H        -5.440733         1.590391         1.589328
