19
Iteration:  1856charge 0 multiplicity 1
 C         1.147217         0.074244         0.664341
 C        -0.230998        -0.007990         0.305611
 C        -1.431118        -0.114938         0.037378
 C        -2.929487         0.023404        -0.226509
 O        -3.131831         0.943065        -1.214795
 C        -3.391162         0.571664         1.107681
 C        -4.859991         0.398642         1.269154
 C        -5.244636         0.548934         2.797469
 O        -4.487172         0.312370         3.715913
 H         1.784232        -0.404910        -0.015018
 H         1.573517         1.092337         0.970669
 H         1.311190        -0.341405         1.625777
 H        -3.569348        -0.868365        -0.415933
 H        -2.339166         1.466588        -1.037935
 H        -2.687166         0.215781         1.806887
 H        -3.150051         1.628342         0.968439
 H        -5.485432         0.787083         0.445311
 H        -4.972348        -0.745693         1.281187
 H        -6.270767         0.892089         3.056185
