19
Iteration:  3094
 C         1.021895         0.778422        -0.304792
 C        -0.121087         0.002972        -0.002476
 C        -1.271328        -0.369100         0.180094
 C        -2.705795        -0.334638         0.244756
 O        -3.274758         1.089356         0.268953
 C        -3.266446        -0.852566         1.638041
 C        -4.770936        -0.539745         1.753700
 C        -5.238910         0.859555         2.134025
 O        -4.695184         1.857729         2.562588
 H         1.820397         0.535304         0.311083
 H         1.234610         0.538093        -1.320757
 H         0.759934         1.800945        -0.202691
 H        -3.211923        -0.880345        -0.642661
 H        -3.443465         1.051825        -0.699731
 H        -2.697017        -1.760173         1.788479
 H        -2.742399        -0.116492         2.295112
 H        -5.326767        -0.952688         0.805282
 H        -5.226276        -0.970875         2.741284
 H        -6.403405         0.849227         2.080383
