19
Iteration:  4286
 C         1.126246         0.404296        -0.508873
 C        -0.170931         0.052750        -0.065306
 C        -1.181886         0.127060         0.628119
 C        -2.582246         0.149913         0.971198
 O        -3.352800        -0.373046        -0.106389
 C        -3.128639         1.500155         1.261089
 C        -4.667207         1.474667         1.407481
 C        -5.353961         0.208509         1.979068
 O        -5.033074        -0.456839         2.990860
 H         1.808413         0.892665         0.204036
 H         1.621015        -0.423883        -1.105285
 H         1.048955         1.168543        -1.281167
 H        -2.867458        -0.441082         1.888926
 H        -2.905052        -1.223008        -0.070899
 H        -2.614646         1.873276         2.166778
 H        -3.023783         2.272462         0.456940
 H        -5.114499         2.380523         2.009351
 H        -5.094465         1.548828         0.433172
 H        -6.187253        -0.102779         1.263090
