19
Iteration:    29
 C         1.459234        -0.092520        -0.093007
 C         0.027060        -0.070667        -0.048919
 C        -1.149737         0.102564         0.130991
 C        -2.529798         0.197569        -0.056537
 O        -3.013288         1.325532        -0.762589
 C        -3.337095        -0.005607         1.393640
 C        -4.834054         0.298906         1.470046
 C        -5.089100         0.711815         2.856646
 O        -5.929310         0.280237         3.636882
 H         1.829035         0.197358         0.895489
 H         1.867586        -1.152863        -0.293907
 H         1.939288         0.532905        -0.854297
 H        -2.803636        -0.710270        -0.705330
 H        -2.480313         1.454332        -1.551973
 H        -3.005232        -1.049521         1.659573
 H        -2.881205         0.941248         1.877803
 H        -4.951569         1.225307         0.835790
 H        -5.569440        -0.443732         1.120681
 H        -4.455425         1.359371         3.380014
