19
Iteration:  3049
 C         1.206214         0.561267        -0.138212
 C        -0.215995         0.190734        -0.033465
 C        -1.382728        -0.166955         0.014500
 C        -2.790847        -0.232084         0.205145
 O        -3.292889         1.043958        -0.243086
 C        -3.223774        -0.645900         1.690448
 C        -4.776458        -0.564066         1.951816
 C        -5.295129         0.823588         2.151961
 O        -4.689261         1.647648         2.817452
 H         1.669902         0.271731         0.766096
 H         1.706579         0.030818        -0.890463
 H         1.419537         1.595278        -0.104144
 H        -3.162877        -1.213714        -0.175274
 H        -2.988684         1.054779        -1.173106
 H        -2.821865        -1.597431         2.060622
 H        -2.813645         0.201440         2.266204
 H        -5.417979        -1.282147         1.286299
 H        -4.725174        -0.957774         3.048084
 H        -6.405574         1.022338         1.784263
