19
Iteration:  4521
 C         1.245125         0.550703        -0.268815
 C        -0.017715        -0.031092         0.353293
 C        -1.205788        -0.193224         0.537721
 C        -2.742946        -0.016866         0.484801
 O        -3.309288        -0.149796        -0.879581
 C        -3.327940         1.254286         1.212761
 C        -4.859703         1.243163         1.304275
 C        -5.389456         0.478472         2.575987
 O        -4.754655        -0.182363         3.390534
 H         2.164415         0.566238         0.349979
 H         1.348447        -0.069647        -1.159510
 H         1.047585         1.603883        -0.646554
 H        -3.344108        -0.791189         0.967588
 H        -2.487937        -0.302590        -1.358560
 H        -2.759562         1.224559         2.165233
 H        -3.116646         2.222382         0.781906
 H        -5.450361         2.194530         1.302957
 H        -5.354136         0.568464         0.526011
 H        -6.437551         0.358188         2.682178
