19
Iteration:  1058charge 0 multiplicity 1
 C         1.457242        -0.146868        -0.418565
 C         0.026319         0.013878        -0.087853
 C        -1.181923        -0.087056         0.004233
 C        -2.618800         0.088831         0.148006
 O        -2.893765         1.360921        -0.574527
 C        -3.069952         0.252708         1.585925
 C        -4.511318         0.487113         1.626345
 C        -5.263430         0.115294         2.907758
 O        -6.306781         0.583437         3.333250
 H         1.918723        -0.720083         0.447162
 H         1.540630        -0.654421        -1.343343
 H         2.008854         0.815274        -0.541289
 H        -3.216812        -0.668965        -0.350338
 H        -2.495259         1.360552        -1.462121
 H        -2.586308        -0.451156         2.263613
 H        -2.485553         1.169300         1.930984
 H        -4.931821         1.535867         1.485839
 H        -5.065194         0.005468         0.827475
 H        -4.578740        -0.429431         3.593952
