19
Iteration:  1638charge 0 multiplicity 1
 C         1.381568         0.056546        -0.048379
 C        -0.019918         0.023063         0.216026
 C        -1.248245        -0.019947         0.231545
 C        -2.633083         0.020220         0.019449
 O        -2.937102         1.150476        -0.949925
 C        -3.358256         0.318339         1.382301
 C        -4.970340         0.220655         1.352673
 C        -5.643337         0.629800         2.675943
 O        -5.061850         0.369491         3.731355
 H         1.692824        -0.795779        -0.601580
 H         1.559612         0.938283        -0.735479
 H         2.074478         0.147891         0.755025
 H        -2.992618        -0.958935        -0.435408
 H        -2.051492         1.205049        -1.407885
 H        -3.142113        -0.384157         2.150889
 H        -3.146367         1.321508         1.648157
 H        -5.361705         0.788222         0.507273
 H        -5.103841        -0.774647         1.080708
 H        -6.648191         0.958221         2.770622
