19
Iteration:   326
 C         1.594154        -0.121242        -0.350885
 C         0.117553        -0.204279        -0.167840
 C        -1.080879        -0.139890        -0.027899
 C        -2.611112         0.205785         0.076146
 O        -3.093606         1.444616        -0.501372
 C        -3.112754         0.277345         1.537088
 C        -4.588391         0.285914         1.532463
 C        -5.254005         0.632465         2.937680
 O        -6.307327         0.324247         3.401100
 H         2.028885         0.413894         0.508129
 H         2.102193        -1.153894        -0.350330
 H         1.930294         0.358623        -1.301213
 H        -3.003892        -0.725419        -0.317427
 H        -2.734989         1.482950        -1.401076
 H        -2.779000        -0.734051         2.122416
 H        -2.576099         0.958299         2.196929
 H        -5.100234         1.030307         0.985989
 H        -4.834495        -0.690313         1.256531
 H        -4.441449         1.279134         3.643683
