19
Iteration:  1566charge 0 multiplicity 1
 C         1.495914        -0.202112        -0.347279
 C         0.105472         0.077136        -0.000720
 C        -1.091562         0.102300         0.290476
 C        -2.605955         0.125195         0.339620
 O        -3.058546         1.055268        -0.810928
 C        -3.263944         0.559031         1.601241
 C        -4.774389         0.359451         1.281184
 C        -5.613007         0.066927         2.562560
 O        -5.476073         0.609365         3.634277
 H         1.549063        -1.290277        -0.673388
 H         1.754956         0.453701        -1.192017
 H         2.286151        -0.138228         0.460638
 H        -2.957048        -0.868477         0.254407
 H        -3.162335         1.974332        -0.494508
 H        -3.145716        -0.076283         2.477902
 H        -3.062930         1.650426         1.660332
 H        -5.326819         1.184608         0.763940
 H        -4.777200        -0.520750         0.525270
 H        -6.641952        -0.304235         2.505490
