19
Iteration:  4996
 C         1.179088         0.484394         0.095243
 C        -0.103682         0.135273         0.540975
 C        -1.349991         0.077003         0.518353
 C        -2.819328        -0.033992         0.458592
 O        -3.251700        -0.544055        -0.859129
 C        -3.552923         1.370166         0.784394
 C        -4.944946         1.290693         1.288186
 C        -5.153110         0.618929         2.739963
 O        -4.395086        -0.289489         3.129407
 H         1.178154         0.698186        -0.977556
 H         1.574680         1.377642         0.670165
 H         1.908434        -0.358313         0.172210
 H        -3.341035        -0.694097         1.183820
 H        -3.584512        -1.466293        -0.742581
 H        -2.905282         1.976764         1.453361
 H        -3.532381         1.976237        -0.180505
 H        -5.335465         2.361120         1.420267
 H        -5.595185         0.916895         0.482017
 H        -6.058785         0.916217         3.261090
