19
Iteration:  1679
 C         1.325896         0.163366         0.322802
 C        -0.023980         0.054776         0.113362
 C        -1.235053        -0.134222        -0.038283
 C        -2.678764        -0.049430        -0.134190
 O        -3.127978         1.134753        -0.938983
 C        -3.360261         0.203163         1.378320
 C        -4.853254         0.311361         1.269425
 C        -5.442698         0.720230         2.744782
 O        -5.016695         0.326091         3.797037
 H         1.994809        -0.655485        -0.099972
 H         1.766300         1.087443        -0.162454
 H         1.568346         0.108112         1.411882
 H        -3.102727        -0.946445        -0.609332
 H        -3.142219         1.039530        -1.882424
 H        -3.007312        -0.723608         1.930924
 H        -2.839740         1.084365         1.783274
 H        -5.102394         1.148187         0.529595
 H        -5.445821        -0.638545         1.025390
 H        -6.158783         1.635492         2.654685
