19
Iteration:  1442charge 0 multiplicity 1
 C         1.442352        -0.069182        -0.102790
 C         0.010419        -0.171382         0.034568
 C        -1.228778         0.020151         0.119183
 C        -2.683386         0.199603        -0.011726
 O        -3.052379         1.386077        -0.576576
 C        -3.259695         0.224799         1.407858
 C        -4.784316         0.190639         1.358398
 C        -5.202308        -0.028323         2.802540
 O        -5.679256         0.895861         3.490712
 H         1.981955        -0.992911        -0.105256
 H         1.616569         0.414060        -1.118020
 H         1.871415         0.597245         0.628905
 H        -3.001564        -0.704473        -0.606946
 H        -2.608027         1.546711        -1.430403
 H        -2.819504        -0.592575         1.897246
 H        -2.802309         1.037750         1.956236
 H        -5.171500         1.113941         0.897286
 H        -5.108686        -0.744788         0.747108
 H        -4.812462        -0.809962         3.399396
