19
Iteration:   271charge 0 multiplicity 1
 C         1.414049        -0.266785        -0.142018
 C         0.050407         0.176897        -0.180530
 C        -1.154395         0.174122        -0.034703
 C        -2.616689         0.190214         0.039588
 O        -3.224271         1.346065        -0.570745
 C        -2.959062        -0.116373         1.515615
 C        -4.555684         0.120109         1.564544
 C        -5.077858         0.714140         2.909404
 O        -6.187486         0.496070         3.336490
 H         1.991557         0.068460         0.732652
 H         1.385875        -1.448142        -0.090621
 H         2.018442         0.082001        -1.013241
 H        -2.833932        -0.696860        -0.563831
 H        -2.484357         1.938709        -0.870207
 H        -2.896681        -1.303402         1.664829
 H        -2.538570         0.554059         2.251600
 H        -5.002133         0.810720         0.790616
 H        -5.042008        -0.822565         1.495199
 H        -4.266580         1.203475         3.462991
