19
Iteration:  1628
 C         1.406743         0.045461        -0.138435
 C        -0.017975        -0.045822         0.197093
 C        -1.200515         0.003351         0.267506
 C        -2.658664         0.147763         0.166858
 O        -2.920370         1.096281        -0.947096
 C        -3.395773         0.346370         1.405322
 C        -4.981847         0.221410         1.283771
 C        -5.665754         0.517868         2.673085
 O        -5.069529         0.404599         3.716340
 H         1.735404        -0.806481        -0.643427
 H         1.608257         0.903449        -0.824294
 H         2.003116         0.139336         0.734594
 H        -3.026222        -0.783409        -0.421573
 H        -2.042728         1.396468        -1.265236
 H        -2.847953        -0.258571         2.078777
 H        -3.096063         1.332030         1.734391
 H        -5.286671         0.815120         0.440211
 H        -5.412424        -0.750850         1.212208
 H        -6.633636         0.907810         2.574565
