19
Iteration:  2739
 C         1.357525        -0.330818        -0.164782
 C        -0.011410         0.098467         0.063904
 C        -1.195641         0.395730         0.127121
 C        -2.637233         0.198771         0.107150
 O        -3.229133         0.583088        -1.142158
 C        -3.345222         0.625847         1.404367
 C        -4.610250        -0.155147         1.687107
 C        -5.250668         0.166644         3.031209
 O        -5.442489         1.288820         3.467252
 H         2.093848         0.380314         0.303340
 H         1.484292        -1.391477         0.219909
 H         1.524738        -0.215518        -1.260412
 H        -2.577047        -0.911521         0.170089
 H        -2.851012         1.463387        -1.237758
 H        -2.680415         0.710825         2.293685
 H        -3.629891         1.697037         1.305201
 H        -5.344600         0.123170         0.927979
 H        -4.424149        -1.241793         1.606440
 H        -5.555173        -0.785988         3.565029
