19
Iteration:   660charge 0 multiplicity 1
 C         1.245598        -0.556839         0.425517
 C        -0.060526        -0.153249        -0.024284
 C        -1.226356         0.151899        -0.330710
 C        -2.691773         0.398212        -0.292204
 O        -3.055117         1.612335        -0.913420
 C        -3.176934         0.490808         1.258062
 C        -4.743519         0.435232         1.457379
 C        -5.033247         0.561657         2.981390
 O        -5.645719        -0.192036         3.735594
 H         1.310568        -0.289171         1.460440
 H         1.275843        -1.694898         0.321060
 H         2.055160        -0.193128        -0.181567
 H        -3.451031        -0.434112        -0.668213
 H        -2.506348         2.385060        -0.646425
 H        -2.941376        -0.465962         1.833813
 H        -2.552701         1.350377         1.721348
 H        -5.203565         1.329541         1.018953
 H        -5.068539        -0.519576         1.131370
 H        -4.486883         1.617683         3.317976
