19
Iteration:   792charge 0 multiplicity 1
 C         1.464237        -0.344973         0.013826
 C        -0.054186        -0.262208        -0.073237
 C        -1.265018         0.004005        -0.017606
 C        -2.638617         0.363817        -0.011479
 O        -2.819943         1.681787        -0.576004
 C        -3.356355         0.225565         1.301591
 C        -4.969879         0.320118         1.325588
 C        -5.261942         0.740648         2.790775
 O        -5.577586        -0.005370         3.711434
 H         1.762295        -0.285801         1.009124
 H         1.787198        -1.363012        -0.368778
 H         1.970001         0.409484        -0.555507
 H        -3.095919        -0.368860        -0.693853
 H        -2.618059         1.840322        -1.537342
 H        -3.133777        -0.768630         1.740982
 H        -2.932327         0.931035         2.054609
 H        -5.220514         0.836771         0.334405
 H        -5.259563        -0.693271         1.219903
 H        -4.935813         1.827730         2.868856
