19
Iteration:  1131charge 0 multiplicity 1
 C         1.569881        -0.157521        -0.324736
 C         0.184387        -0.121452        -0.140394
 C        -1.008525         0.104043         0.019303
 C        -2.463198         0.170307         0.000857
 O        -2.977517         1.280195        -0.649163
 C        -3.313213         0.247937         1.476128
 C        -4.839211         0.390039         1.489513
 C        -5.360754         0.082584         2.929805
 O        -6.109403         0.737433         3.627610
 H         1.987822        -0.881826         0.414781
 H         1.779977        -0.463661        -1.364473
 H         2.046857         0.844741        -0.194463
 H        -2.754961        -0.879439        -0.489176
 H        -2.505823         2.079153        -0.477736
 H        -2.893277        -0.697101         1.841024
 H        -2.786177         0.898850         2.193981
 H        -5.408280         1.336022         1.129227
 H        -5.335113        -0.424383         0.853855
 H        -5.006646        -0.918112         3.215158
