19
Iteration:  4206charge 0 multiplicity 1
 C         1.319916         0.292721        -0.557475
 C        -0.067578         0.489047         0.038251
 C        -1.266572         0.543175         0.362099
 C        -2.532535        -0.038306         0.793638
 O        -3.333877        -0.704459        -0.167730
 C        -3.172268         1.098894         1.567618
 C        -4.622183         1.393300         1.284474
 C        -5.568232         0.413012         2.147130
 O        -5.148127        -0.214677         3.096915
 H         2.064584         0.650726         0.164159
 H         1.599636        -0.794334        -0.741796
 H         1.446939         0.628554        -1.602440
 H        -2.341268        -0.938450         1.494372
 H        -3.185466        -0.251193        -0.999510
 H        -2.955550         0.954397         2.646741
 H        -2.718777         2.070715         1.356286
 H        -4.824648         2.507372         1.371133
 H        -4.881702         1.063363         0.189201
 H        -6.592551         0.200250         1.818439
