19
Iteration:  4190
 C         1.220310         0.336418        -0.463554
 C        -0.091888         0.472936        -0.132254
 C        -1.178701         0.379052         0.328126
 C        -2.459461        -0.042820         0.844170
 O        -3.226173        -0.663543        -0.234256
 C        -3.191520         1.082143         1.602444
 C        -4.686822         1.227229         1.311258
 C        -5.572387         0.491578         2.145364
 O        -5.148182        -0.145679         3.092448
 H         1.886185         0.889593         0.223696
 H         1.473082        -0.714236        -0.509909
 H         1.413382         0.779096        -1.484119
 H        -2.346836        -0.855704         1.572323
 H        -3.399251        -0.028843        -0.956021
 H        -3.188537         0.989091         2.711764
 H        -2.609867         1.996517         1.386581
 H        -5.026364         2.181498         1.677969
 H        -5.028810         1.223734         0.302130
 H        -6.662625         0.809040         1.901215
