19
Iteration:  4397charge 0 multiplicity 1
 C         1.418703         0.322026        -0.282563
 C        -0.064617         0.108097        -0.169136
 C        -1.198947         0.234978         0.258211
 C        -2.642239         0.162136         0.877664
 O        -3.577911        -0.412070        -0.066923
 C        -3.207617         1.527137         1.261931
 C        -4.737143         1.394769         1.413903
 C        -5.393354         0.358077         2.271392
 O        -4.903077        -0.555416         2.875477
 H         1.761283         0.464405         0.769416
 H         1.983097        -0.432581        -0.821268
 H         1.438850         1.280053        -0.868790
 H        -2.770967        -0.516505         1.750451
 H        -3.023953        -1.060255        -0.567223
 H        -2.879238         1.962380         2.216797
 H        -2.931052         2.298843         0.510511
 H        -5.310452         2.301696         1.876466
 H        -5.194231         1.187328         0.462439
 H        -6.482055         0.381875         2.334236
