19
Iteration:  1398
 C         1.424464         0.032146         0.103451
 C        -0.056560        -0.038185         0.027390
 C        -1.295337        -0.083912        -0.197176
 C        -2.699071         0.176629        -0.202513
 O        -2.887029         1.453093        -0.704409
 C        -3.197589        -0.089543         1.247790
 C        -4.806404         0.026275         1.501258
 C        -5.138935         0.150470         3.001576
 O        -5.745950         1.011600         3.548809
 H         1.748328        -0.976027         0.317529
 H         1.813298         0.358188        -0.941501
 H         1.815122         0.665040         0.890406
 H        -3.412944        -0.405337        -0.910286
 H        -2.466165         2.039469        -0.014009
 H        -2.945886        -1.079967         1.523892
 H        -2.787683         0.527258         2.065701
 H        -5.428322         0.922844         1.218327
 H        -5.262250        -0.973803         1.017428
 H        -4.734331        -0.820639         3.709503
