19
Iteration:  1465charge 0 multiplicity 1
 C         1.530275        -0.166462        -0.163893
 C         0.029868        -0.005334        -0.052702
 C        -1.145112         0.062528         0.050953
 C        -2.591149         0.169375         0.159286
 O        -3.059489         1.347619        -0.632337
 C        -3.272226         0.296778         1.560414
 C        -4.827494         0.254843         1.365695
 C        -5.306761        -0.038818         2.736091
 O        -5.712342         0.829799         3.520473
 H         1.753828        -1.214962        -0.196544
 H         1.902088         0.216238        -1.188030
 H         2.136800         0.289142         0.603761
 H        -2.831841        -0.800249        -0.340790
 H        -3.197661         1.131118        -1.561876
 H        -2.834785        -0.311847         2.283012
 H        -2.901442         1.274936         1.855719
 H        -5.124793         1.180628         0.881123
 H        -5.096993        -0.683243         0.719325
 H        -5.488267        -1.019615         3.052866
