19
Iteration:  1644
 C         1.408629         0.069374        -0.021560
 C        -0.035374         0.058664         0.232572
 C        -1.219829        -0.041089         0.211723
 C        -2.689311        -0.031911        -0.086894
 O        -2.935756         1.157799        -0.928258
 C        -3.415473         0.308305         1.368422
 C        -4.919866         0.244606         1.368467
 C        -5.580186         0.642695         2.697392
 O        -5.066040         0.360667         3.731898
 H         1.561273        -0.905210        -0.620285
 H         1.584455         0.963984        -0.602242
 H         1.965588         0.247103         0.964068
 H        -3.012872        -1.054440        -0.329861
 H        -2.212735         1.224474        -1.549080
 H        -3.080824        -0.398307         2.226562
 H        -3.005133         1.318780         1.720531
 H        -5.513505         0.836315         0.610945
 H        -5.140935        -0.885586         1.086064
 H        -6.698647         1.098912         2.581310
