19
Iteration:  2194
 C         1.368613         0.255410        -0.273663
 C        -0.021840         0.193216         0.155319
 C        -1.189415         0.064040         0.358715
 C        -2.636825        -0.100161         0.195366
 O        -3.241025         1.104062        -0.354269
 C        -3.454562        -0.612822         1.494542
 C        -4.961596        -0.524132         1.539131
 C        -5.428173         0.657769         2.459351
 O        -4.796116         1.602660         2.947076
 H         1.280394         0.689535        -1.241098
 H         1.899310         1.006390         0.423597
 H         1.869873        -0.697742        -0.304259
 H        -2.743154        -0.871998        -0.566193
 H        -3.015048         1.873538         0.244094
 H        -3.146731        -1.643426         1.743658
 H        -3.036728        -0.192742         2.405929
 H        -5.450622         0.033423         0.696193
 H        -5.630954        -1.398655         1.590214
 H        -6.539259         0.483399         2.552169
