19
Iteration:  1113charge 0 multiplicity 1
 C         1.629297        -0.187675        -0.441601
 C         0.177739        -0.080157         0.021679
 C        -1.106968         0.130305         0.136768
 C        -2.599403         0.139847         0.106296
 O        -2.968626         1.329392        -0.735423
 C        -3.248437         0.131954         1.440629
 C        -4.795540         0.440376         1.466352
 C        -5.301022         0.129852         2.922549
 O        -6.155485         0.669106         3.597016
 H         2.331841        -0.863544         0.159835
 H         1.687269        -0.522238        -1.462537
 H         2.100934         0.825656        -0.426428
 H        -2.959613        -0.656448        -0.470879
 H        -2.186476         1.851415        -0.853678
 H        -3.109724        -0.761253         2.119481
 H        -2.863149         1.003511         2.061468
 H        -5.092867         1.570991         1.238423
 H        -5.337189        -0.313529         0.939955
 H        -4.693032        -0.800398         3.262024
