19
Iteration:  3378
 C         1.242648        -0.221803         0.088265
 C        -0.163032         0.310090        -0.304086
 C        -1.322848         0.085522        -0.181235
 C        -2.769643         0.119229         0.104092
 O        -3.395746         1.306812        -0.542645
 C        -3.044377         0.078209         1.626682
 C        -4.387771        -0.630411         1.909222
 C        -5.355786         0.266179         2.725520
 O        -5.218657         1.463830         2.873887
 H         1.354195        -1.337126         0.068360
 H         2.199314         0.301380        -0.192836
 H         1.244602        -0.274232         1.184941
 H        -3.204822        -0.827391        -0.356455
 H        -2.535066         1.781497        -0.541740
 H        -2.213036        -0.493739         2.024695
 H        -3.048909         1.090326         2.028746
 H        -4.879065        -1.099863         1.080436
 H        -4.267142        -1.402812         2.839849
 H        -6.231897        -0.349063         3.087159
