19
Iteration:  2847charge 0 multiplicity 1
 C         1.332993         0.115524        -0.156225
 C        -0.046945        -0.132453         0.040242
 C        -1.251153        -0.232870        -0.007637
 C        -2.753353        -0.031329        -0.031851
 O        -2.998173         0.949761        -1.044760
 C        -3.323353         0.537675         1.376670
 C        -4.550156        -0.253053         1.889551
 C        -5.330646         0.275046         3.167778
 O        -5.485364         1.451165         3.343920
 H         1.569689         0.703443         0.732296
 H         1.975235        -0.736897        -0.170722
 H         1.520513         0.713932        -1.052349
 H        -3.212932        -1.002810        -0.233631
 H        -2.795195         0.373268        -1.816105
 H        -2.551172         0.578231         2.163493
 H        -3.680927         1.558422         1.205079
 H        -5.210431        -0.360029         0.936166
 H        -4.327305        -1.378067         2.180368
 H        -5.495119        -0.427417         4.093002
