19
Iteration:  3781
 C         1.255531         0.295821         0.414828
 C        -0.244921         0.194596         0.387297
 C        -1.429808        -0.020270         0.296628
 C        -2.862718        -0.097920         0.126452
 O        -3.381172        -0.141373        -1.224916
 C        -3.487976         1.089330         0.779855
 C        -4.837863         0.863244         1.380297
 C        -5.139865         0.434951         2.805836
 O        -4.354946         0.431419         3.722178
 H         1.647869         0.884887        -0.432880
 H         1.612261         0.707977         1.353380
 H         1.623059        -0.735798         0.278861
 H        -3.158170        -1.058303         0.634415
 H        -2.929194        -0.846788        -1.712794
 H        -2.722918         1.637842         1.414047
 H        -3.430376         1.731481        -0.139038
 H        -5.423982         1.659241         0.929030
 H        -5.286582         0.037663         0.730311
 H        -6.172831        -0.055671         2.878437
