19
Iteration:  2435charge 0 multiplicity 1
 C         1.220464         0.592533         0.282670
 C        -0.232553         0.285566         0.339568
 C        -1.406341         0.006814         0.070800
 C        -2.849655        -0.322666         0.010097
 O        -3.671515         0.912823        -0.499715
 C        -3.472457        -0.805378         1.300456
 C        -4.930954        -0.318967         1.503385
 C        -4.934601         0.991985         2.313123
 O        -4.143888         1.316775         3.182064
 H         1.485472         1.515988        -0.162857
 H         1.651109         0.621173         1.304543
 H         1.457176        -0.157941        -0.412345
 H        -2.990498        -0.983961        -0.883781
 H        -3.003778         1.646316        -0.608603
 H        -3.502607        -1.921019         1.339024
 H        -2.851442        -0.441703         2.176799
 H        -5.470921        -0.015090         0.551279
 H        -5.632542        -1.025862         1.808186
 H        -5.810718         1.700276         2.305559
