19
Iteration:  2588charge 0 multiplicity 1
 C         1.289689         0.593880         0.053602
 C        -0.118215         0.095531        -0.034873
 C        -1.314109        -0.291118        -0.064902
 C        -2.809265        -0.290529         0.021807
 O        -3.171351         0.937840        -0.759376
 C        -3.367082        -0.285469         1.516350
 C        -4.900437        -0.318953         1.600113
 C        -5.341450         0.828679         2.578004
 O        -4.711257         1.318793         3.508136
 H         1.062687         1.636811         0.210065
 H         1.666962         0.058095         0.975896
 H         1.958549         0.350701        -0.752076
 H        -3.208967        -1.166430        -0.493033
 H        -2.348477         1.409590        -0.661448
 H        -2.928205        -1.210799         1.891381
 H        -3.081371         0.556197         2.211421
 H        -5.330635        -0.031749         0.588116
 H        -5.565617        -1.228459         1.895331
 H        -6.365821         1.301248         2.285358
