19
Iteration:  4322charge 0 multiplicity 1
 C         1.147359         0.360044        -0.574856
 C        -0.051250         0.292423         0.335272
 C        -1.219014         0.090608         0.617678
 C        -2.660816         0.043380         0.890761
 O        -3.495532        -0.483471        -0.144942
 C        -3.213154         1.402452         1.267836
 C        -4.784340         1.605560         1.523057
 C        -5.240829         0.274316         1.914158
 O        -4.783109        -0.403056         2.822665
 H         2.167930         0.585266        -0.240266
 H         1.160873        -0.551465        -1.101247
 H         0.661475         1.056735        -1.283484
 H        -2.794557        -0.569543         1.778698
 H        -3.643422        -1.435021        -0.206100
 H        -2.707099         1.806899         2.144119
 H        -3.005697         2.102713         0.463158
 H        -4.856156         2.429803         2.256318
 H        -5.252361         1.872127         0.573178
 H        -6.006210        -0.257348         1.274082
