19
Iteration:   393charge 0 multiplicity 1
 C         1.418094        -0.181295        -0.535065
 C         0.101326        -0.082924        -0.043695
 C        -1.129949        -0.249159         0.158274
 C        -2.529107         0.204416         0.236699
 O        -2.794751         1.360159        -0.770871
 C        -3.142084         0.491004         1.580778
 C        -4.710233         0.549334         1.611311
 C        -5.270919         0.640230         3.021073
 O        -6.292993        -0.024992         3.364001
 H         2.193572         0.295607         0.152222
 H         1.667317        -1.228863        -0.546520
 H         1.573552         0.231028        -1.587100
 H        -3.144869        -0.490324        -0.323926
 H        -2.209878         1.272499        -1.588062
 H        -2.805743        -0.286809         2.429398
 H        -2.930886         1.433965         2.031598
 H        -4.818382         1.475147         1.158745
 H        -5.136747        -0.239436         1.152280
 H        -4.866343         1.451388         3.461603
