19
Iteration:   197charge 0 multiplicity 1
 C         1.501038        -0.057996         0.048007
 C        -0.020870         0.001393        -0.051064
 C        -1.256582        -0.025519        -0.122450
 C        -2.801394         0.195241        -0.139494
 O        -3.080595         1.513563        -0.647493
 C        -3.155323        -0.189152         1.324608
 C        -4.591455        -0.134871         1.632935
 C        -4.930501         0.638976         2.909480
 O        -6.036216         0.677489         3.439431
 H         1.855329         0.363386         1.009032
 H         1.849860        -1.091418         0.088831
 H         2.081338         0.481966        -0.726012
 H        -3.234765        -0.592512        -0.890125
 H        -2.954314         2.221822         0.002338
 H        -2.880152        -1.163916         1.247443
 H        -2.601902         0.518768         2.026964
 H        -5.100236         0.565293         0.847917
 H        -5.079506        -1.106672         1.525265
 H        -4.045410         1.374948         3.145228
