19
Iteration:  3465charge 0 multiplicity 1
 C         1.385450        -0.010443        -0.399812
 C        -0.024967         0.137518         0.041989
 C        -1.227025         0.123493         0.128988
 C        -2.626312        -0.113620         0.143569
 O        -3.225621         1.081282        -0.581357
 C        -3.121934        -0.021471         1.709048
 C        -4.631290        -0.292395         1.684566
 C        -5.506959         0.303957         2.780665
 O        -5.373570         1.475822         3.074764
 H         1.381823        -0.699130        -1.257526
 H         1.787443         0.930463        -0.711053
 H         1.966757        -0.438916         0.406234
 H        -3.007054        -1.059887        -0.484482
 H        -2.493050         1.724831        -0.613137
 H        -2.600114        -0.646294         2.444487
 H        -3.001004         1.007018         2.049170
 H        -4.964961         0.135699         0.706538
 H        -5.044487        -1.374296         1.484874
 H        -6.417881        -0.231163         3.187452
