19
Iteration:  1289charge 0 multiplicity 1
 C         1.391307        -0.128801         0.252368
 C        -0.074440         0.124014         0.096156
 C        -1.275573         0.075371        -0.205882
 C        -2.708356         0.087447        -0.249963
 O        -3.171666         1.633318        -0.477199
 C        -3.238208        -0.366033         1.148873
 C        -4.710507        -0.029880         1.494816
 C        -4.906334         0.197896         2.935691
 O        -5.656862         1.053694         3.420908
 H         1.530636        -1.077770         0.784106
 H         1.975072        -0.190897        -0.725896
 H         1.923305         0.556388         0.914676
 H        -3.065119        -0.444169        -1.163372
 H        -3.434757         1.816975        -1.371872
 H        -2.890767        -1.359882         1.119259
 H        -2.703254         0.273997         1.815580
 H        -5.072558         0.892357         1.034801
 H        -5.345506        -0.795687         1.212036
 H        -4.420951        -0.394791         3.797100
