19
Iteration:  4771charge 0 multiplicity 1
 C         1.184902         0.339441         0.249384
 C        -0.237614         0.054116         0.410622
 C        -1.458504        -0.129674         0.493319
 C        -2.921394        -0.027488         0.186124
 O        -3.083175         0.078162        -1.194669
 C        -3.723463         1.207637         0.714228
 C        -4.960556         0.904189         1.386982
 C        -5.060522         0.198879         2.746357
 O        -4.311221         0.316097         3.706887
 H         1.676900        -0.571399        -0.116147
 H         1.457797         1.014094        -0.500181
 H         1.648449         0.713490         1.214249
 H        -3.284638        -0.863503         0.791529
 H        -2.484404        -0.545595        -1.628638
 H        -2.749211         1.640667         1.149934
 H        -3.966420         1.819968        -0.164700
 H        -5.382325         1.944244         1.476383
 H        -5.602738         0.218940         0.745313
 H        -5.860236        -0.528620         2.778414
