19
Iteration:  3545
 C         1.364951         0.380711        -0.495750
 C         0.094719        -0.024096         0.162622
 C        -1.103745        -0.168750         0.181963
 C        -2.587472        -0.202238         0.258357
 O        -3.172268         0.698963        -0.766536
 C        -3.263322         0.065602         1.641537
 C        -4.781769         0.043290         1.477929
 C        -5.634959         0.629738         2.565960
 O        -5.238965         1.233949         3.561058
 H         1.351811         0.086164        -1.518437
 H         1.490680         1.485050        -0.462880
 H         2.223780        -0.092872        -0.095370
 H        -2.972728        -1.217263        -0.134529
 H        -2.903146         1.634781        -0.756574
 H        -2.994237        -0.587013         2.423903
 H        -3.012382         1.058317         2.029666
 H        -4.872336         0.585921         0.517253
 H        -5.150376        -0.985864         1.311453
 H        -6.647699         0.172615         2.650216
