19
Iteration:  4252
 C         1.311261         0.375246        -0.552363
 C        -0.035360         0.248701        -0.128839
 C        -1.120826         0.160841         0.431538
 C        -2.528860         0.094471         0.991167
 O        -3.422141        -0.417998        -0.039405
 C        -3.171067         1.405879         1.428901
 C        -4.727901         1.353250         1.346234
 C        -5.554899         0.231336         2.021957
 O        -5.126085        -0.320546         3.026257
 H         2.023208         0.665073         0.219457
 H         1.626321        -0.669896        -0.940568
 H         1.308033         0.963627        -1.452737
 H        -2.363599        -0.668447         1.786367
 H        -2.750322        -0.701348        -0.700160
 H        -2.735152         1.606416         2.417741
 H        -2.765339         2.182262         0.739607
 H        -5.146882         2.271609         1.925512
 H        -4.966358         1.512312         0.291258
 H        -6.542286        -0.098426         1.652261
