19
Iteration:  3749
 C         1.209220         0.408479         0.469693
 C        -0.113595        -0.071749         0.252598
 C        -1.321567        -0.086317        -0.009902
 C        -2.816611         0.025423         0.062527
 O        -3.442299        -0.166998        -1.140880
 C        -3.421920         1.013665         0.930628
 C        -4.866007         0.786161         1.301989
 C        -5.234304         0.522459         2.839556
 O        -4.454203         0.499584         3.777674
 H         1.692975         1.027748        -0.312834
 H         1.386310         1.071701         1.359252
 H         2.001406        -0.340215         0.638552
 H        -2.817668        -0.958114         0.673587
 H        -2.702225        -0.394311        -1.734500
 H        -2.854657         1.037995         1.925233
 H        -3.435647         2.082486         0.512088
 H        -5.549515         1.610873         1.039779
 H        -5.303548        -0.035840         0.791775
 H        -6.291149         0.110930         2.926375
