19
Iteration:   181charge 0 multiplicity 1
 C         1.368176         0.000152         0.116175
 C        -0.052506         0.015012        -0.105099
 C        -1.255983        -0.058530        -0.202997
 C        -2.680874         0.172341        -0.148467
 O        -3.014863         1.522102        -0.632659
 C        -3.174129        -0.250317         1.302308
 C        -4.677593        -0.117498         1.688299
 C        -4.908044         0.685805         2.881179
 O        -6.002034         0.649542         3.430222
 H         1.663453         0.469821         1.070199
 H         1.772099        -1.093281         0.057231
 H         1.836017         0.561508        -0.707575
 H        -3.312531        -0.430792        -0.762185
 H        -2.331524         2.120539        -0.223593
 H        -2.629387        -1.246011         1.662430
 H        -2.515415         0.341631         1.895685
 H        -5.126729         0.604174         0.924115
 H        -5.281414        -1.043035         1.757363
 H        -4.270482         1.370052         3.355480
