19
Iteration:   540
 C         1.344327        -0.483858         0.010570
 C        -0.045393        -0.205796        -0.106630
 C        -1.213676         0.185132        -0.038929
 C        -2.696527         0.304985         0.065188
 O        -2.957278         1.465500        -0.854717
 C        -3.138515         0.578702         1.440255
 C        -4.707567         0.684796         1.562302
 C        -5.165662         0.612986         2.998730
 O        -5.849136        -0.302969         3.435086
 H         1.748786         0.022321         0.914371
 H         1.636287        -1.633770         0.002212
 H         1.839518        -0.034432        -0.869071
 H        -2.944804        -0.687904        -0.377980
 H        -2.879747         0.994133        -1.683965
 H        -2.587924        -0.141126         2.124467
 H        -2.762762         1.601009         1.874390
 H        -4.994436         1.689964         1.125782
 H        -5.041517        -0.225566         1.000835
 H        -4.665957         1.431424         3.598230
