19
Iteration:  1993charge 0 multiplicity 1
 C         1.408748        -0.282765        -0.034010
 C         0.031948         0.030658         0.169246
 C        -1.161996         0.326096         0.227266
 C        -2.690218         0.121461         0.131870
 O        -3.300620         0.909163        -0.887964
 C        -3.314429         0.462836         1.427175
 C        -4.677959         0.039968         1.432444
 C        -5.461951         0.227490         2.612330
 O        -5.185581         0.972385         3.508278
 H         1.537201        -0.468011        -1.150749
 H         2.044782         0.510611         0.302213
 H         1.675978        -1.194672         0.602208
 H        -2.702237        -0.851263        -0.293788
 H        -2.908727         1.812755        -0.873226
 H        -2.824250        -0.060434         2.300292
 H        -3.240456         1.565921         1.470050
 H        -5.345793         0.732031         0.789871
 H        -4.804157        -0.946099         0.877985
 H        -6.274023        -0.546617         2.635276
