19
Iteration:  4356
 C         1.198304         0.290559        -0.397977
 C        -0.224147         0.345381         0.072487
 C        -1.317728         0.166580         0.579519
 C        -2.743457         0.058002         0.966987
 O        -3.519042        -0.503244        -0.124080
 C        -3.191084         1.470754         1.273406
 C        -4.673376         1.491359         1.474590
 C        -5.268681         0.262040         1.974115
 O        -4.694871        -0.421981         2.766154
 H         2.036752         0.535322         0.259298
 H         1.297026        -0.571509        -0.985354
 H         1.345545         1.099787        -1.189605
 H        -2.680873        -0.527391         1.852048
 H        -3.021445        -1.234120        -0.488741
 H        -2.530088         1.758064         2.093869
 H        -2.914726         2.043465         0.405148
 H        -4.849519         2.158812         2.298335
 H        -5.172033         1.982852         0.584023
 H        -6.452427         0.219765         1.762068
