19
Iteration:  2365
 C         0.962535         0.395809         0.723177
 C        -0.337833         0.194920         0.115563
 C        -1.502530         0.039857        -0.268823
 C        -2.962521        -0.146535        -0.142811
 O        -3.706479         1.181910        -0.300942
 C        -3.255715        -0.811860         1.214604
 C        -4.677044        -0.646245         1.845990
 C        -4.827458         0.857532         2.175259
 O        -4.156904         1.563517         2.922615
 H         1.453175         1.341358         0.375689
 H         0.822390         0.506859         1.753770
 H         1.548502        -0.443144         0.384276
 H        -3.474178        -0.831118        -0.825284
 H        -3.079906         1.860613         0.057869
 H        -2.810879        -1.740867         0.921119
 H        -2.590894        -0.362376         1.935742
 H        -5.467346        -1.072635         1.266239
 H        -4.661338        -1.334748         2.752518
 H        -5.712549         1.337351         1.631467
