19
Iteration:  1794charge 0 multiplicity 1
 C         1.107789         0.166480         0.780011
 C        -0.181859         0.047845         0.343359
 C        -1.334263         0.001357         0.038118
 C        -2.829297        -0.106877        -0.346071
 O        -3.210275         0.847668        -1.379370
 C        -3.476286         0.207489         1.077583
 C        -4.886641         0.778248         1.426085
 C        -5.224712         0.557074         2.842450
 O        -4.442134         0.260877         3.720307
 H         1.778064        -0.426264         0.126387
 H         1.315693         1.213114         0.606909
 H         1.126565        -0.329657         1.760115
 H        -3.071526        -1.103603        -0.721487
 H        -2.889754         1.713405        -1.136731
 H        -3.313515        -0.630377         1.798863
 H        -2.838621         0.966593         1.568196
 H        -4.870936         1.739138         0.906488
 H        -5.592869         0.225736         0.831125
 H        -6.287415         0.806756         3.028741
