19
Iteration:  4935
 C         1.239159         0.299871         0.561710
 C        -0.077735         0.350249         0.017780
 C        -1.315914         0.199539         0.123969
 C        -2.818588        -0.029339         0.286441
 O        -3.452048        -0.452547        -0.847566
 C        -3.554868         1.310265         0.813063
 C        -4.920758         1.079413         1.362973
 C        -5.138117         0.537576         2.725570
 O        -4.379086        -0.126097         3.398162
 H         1.895694        -0.002668        -0.268064
 H         1.663697         1.158220         1.033353
 H         1.199110        -0.467105         1.419505
 H        -2.820499        -0.906677         1.017202
 H        -2.703939        -0.703129        -1.426726
 H        -3.027511         1.696286         1.709618
 H        -3.672239         2.047847         0.055403
 H        -5.420659         2.040482         1.343492
 H        -5.594306         0.453205         0.718766
 H        -6.168077         0.664097         3.055690
