19
Iteration:  4931
 C         1.215481         0.281050         0.566869
 C        -0.090508         0.326971         0.006960
 C        -1.309800         0.187164         0.088579
 C        -2.794170        -0.002713         0.296679
 O        -3.455707        -0.446048        -0.846378
 C        -3.573008         1.303638         0.835765
 C        -4.927870         1.078707         1.328057
 C        -5.157321         0.510370         2.738328
 O        -4.346207        -0.110220         3.409931
 H         2.051192        -0.021004        -0.105196
 H         1.544389         1.269268         1.022134
 H         1.206661        -0.405639         1.464793
 H        -2.620463        -0.839096         0.988051
 H        -2.679867        -0.581440        -1.433549
 H        -3.108689         1.610212         1.785318
 H        -3.549641         2.135979         0.087441
 H        -5.431525         2.063132         1.183806
 H        -5.667909         0.480705         0.706982
 H        -6.256427         0.656669         3.113502
