19
Iteration:  3412
 C         1.426569        -0.168295        -0.079936
 C        -0.006001        -0.058536        -0.175443
 C        -1.211003         0.283763        -0.067186
 C        -2.773651         0.109233         0.123491
 O        -3.493116         1.268212        -0.504167
 C        -3.077533         0.032333         1.602148
 C        -4.464203        -0.554859         1.878096
 C        -5.354878         0.262052         2.841431
 O        -5.342973         1.480916         2.858296
 H         1.833802        -1.020603        -0.622366
 H         1.947687         0.756572        -0.495645
 H         1.585401        -0.150569         0.995714
 H        -3.100946        -0.835939        -0.407254
 H        -2.823342         1.863543        -0.882212
 H        -2.281220        -0.468029         2.131255
 H        -3.205397         1.022553         2.040444
 H        -5.040451        -0.307466         0.997049
 H        -4.749048        -1.646403         2.088057
 H        -6.282157        -0.275804         3.178086
