19
Iteration:  4068
 C         1.064585         0.672605        -0.261104
 C        -0.207260         0.272362         0.098840
 C        -1.224728        -0.096530         0.558104
 C        -2.656111        -0.293562         0.633506
 O        -3.083772        -0.385877        -0.685938
 C        -3.236585         1.030759         1.287553
 C        -4.750001         1.372213         1.260032
 C        -5.405795         0.609845         2.421862
 O        -4.911207        -0.137727         3.279121
 H         1.106142         1.713628         0.041603
 H         1.929006         0.088081         0.217868
 H         1.261601         0.632578        -1.313046
 H        -2.857703        -1.176608         1.225604
 H        -3.558521        -1.260847        -0.709540
 H        -2.822160         1.075617         2.320216
 H        -2.651957         1.875737         0.789209
 H        -4.731646         2.453388         1.380923
 H        -5.203772         1.084277         0.320092
 H        -6.555693         0.764527         2.430909
