19
Iteration:  3270charge 0 multiplicity 1
 C         1.257579        -0.043838        -0.027716
 C        -0.055333         0.321702        -0.223596
 C        -1.258160         0.146734        -0.192370
 C        -2.777535         0.006085         0.170875
 O        -3.489367         1.118052        -0.239679
 C        -3.032548        -0.289648         1.723722
 C        -4.535198        -0.569657         1.889718
 C        -5.501382         0.544132         2.335630
 O        -5.004775         1.508021         2.885742
 H         1.445927        -1.125061         0.148865
 H         1.941734         0.281511        -0.893258
 H         1.520133         0.628427         0.805581
 H        -3.142609        -0.819590        -0.349893
 H        -2.936922         1.901411        -0.083461
 H        -2.374889        -1.174428         1.952214
 H        -2.637561         0.565010         2.307833
 H        -4.834683        -1.179460         1.062805
 H        -4.687470        -1.197839         2.705120
 H        -6.571737         0.510945         2.051948
