19
Iteration:  4034
 C         1.264135         0.674644        -0.061692
 C        -0.118738         0.231983         0.218254
 C        -1.248375        -0.146381         0.449013
 C        -2.747002        -0.160325         0.532299
 O        -3.398461        -0.444183        -0.751948
 C        -3.312028         1.148294         1.270989
 C        -4.849152         1.271384         1.222875
 C        -5.288887         0.548829         2.453060
 O        -4.657089        -0.088550         3.238600
 H         1.266545         1.754489         0.080728
 H         2.036577         0.284379         0.678956
 H         1.523739         0.517408        -1.091110
 H        -3.063545        -0.900950         1.238933
 H        -3.842450        -1.330911        -0.777697
 H        -2.819991         1.131679         2.271063
 H        -2.935048         2.005117         0.615582
 H        -5.138411         2.324973         1.390068
 H        -5.140234         0.959999         0.250939
 H        -6.390924         0.640329         2.712533
