19
Iteration:   256charge 0 multiplicity 1
 C         1.483455        -0.259373        -0.113536
 C         0.067660         0.121695        -0.109896
 C        -1.136756         0.176946        -0.019839
 C        -2.569066         0.202266         0.025481
 O        -3.344826         1.376269        -0.571419
 C        -3.116499        -0.123487         1.421862
 C        -4.546205         0.017222         1.533034
 C        -4.997626         0.639724         2.878549
 O        -6.137656         0.594682         3.378576
 H         1.942654         0.101280         0.796134
 H         1.535221        -1.343113        -0.103727
 H         2.043897         0.034818        -0.974496
 H        -3.014059        -0.632775        -0.552546
 H        -2.777221         2.157775        -0.621034
 H        -2.556983        -1.045384         1.753433
 H        -2.481035         0.539786         2.120090
 H        -4.712540         0.771360         0.807152
 H        -5.156453        -0.895804         1.262754
 H        -4.372496         1.243514         3.385110
