19
Iteration:   617
 C         1.192647        -0.465390         0.291835
 C        -0.214703        -0.198894         0.081968
 C        -1.380634         0.144505        -0.145337
 C        -2.802008         0.372279        -0.288436
 O        -2.851066         1.637309        -0.998943
 C        -3.118095         0.520825         1.292556
 C        -4.636857         0.458487         1.581767
 C        -4.966063         0.538882         3.054845
 O        -5.739387        -0.240816         3.623282
 H         1.519744        -0.081714         1.252799
 H         1.480750        -1.608514         0.218271
 H         1.763790         0.028336        -0.505549
 H        -3.006526        -0.554032        -0.937366
 H        -2.077067         1.698337        -1.579048
 H        -2.579837        -0.332096         1.780976
 H        -2.811722         1.551038         1.715156
 H        -5.219262         1.277433         1.145788
 H        -5.098446        -0.448469         1.229726
 H        -4.445025         1.421292         3.432794
