19
Iteration:  3947
 C         1.263547         0.245858         0.473574
 C        -0.152013         0.334758         0.084368
 C        -1.332500         0.274435         0.053392
 C        -2.769750         0.062808         0.463006
 O        -3.409922        -0.805258        -0.686249
 C        -3.575781         1.468461         0.909352
 C        -4.965518         1.245713         1.385761
 C        -5.191133         0.449797         2.571003
 O        -4.277619        -0.097813         3.199918
 H         1.875241         1.114070         0.543088
 H         1.181469        -0.124598         1.550932
 H         1.792327        -0.459897        -0.104977
 H        -2.892738        -0.627131         1.308335
 H        -3.307094        -0.260838        -1.503658
 H        -2.879568         2.045077         1.543737
 H        -3.698261         2.305661         0.162396
 H        -5.380155         2.176463         1.858975
 H        -5.738814         0.898263         0.564498
 H        -6.255961         0.080247         2.737790
