19
Iteration:  3891
 C         1.256118         0.055003         0.398661
 C        -0.201419         0.345443         0.489745
 C        -1.406903         0.300662         0.399456
 C        -2.901594         0.238001         0.410124
 O        -3.453567        -0.585403        -0.735768
 C        -3.713387         1.476999         0.670476
 C        -5.088559         1.041911         1.208959
 C        -5.004483         0.388776         2.643711
 O        -3.961092        -0.029335         3.158311
 H         1.761022         0.896203        -0.052571
 H         1.729191        -0.217747         1.373725
 H         1.348078        -0.816761        -0.230270
 H        -3.220403        -0.469047         1.142536
 H        -3.128858        -0.073425        -1.515735
 H        -3.034077         2.043371         1.364314
 H        -3.867767         1.937198        -0.353012
 H        -5.967060         1.762684         1.265170
 H        -5.250418         0.055366         0.533155
 H        -5.988139         0.253365         3.235742
