19
Iteration:  3541
 C         1.373035         0.376322        -0.501110
 C         0.120629        -0.036561         0.139611
 C        -1.073703        -0.131001         0.172350
 C        -2.594556        -0.219413         0.244673
 O        -3.167877         0.709704        -0.741990
 C        -3.274245         0.080988         1.638411
 C        -4.808791         0.022378         1.488058
 C        -5.642747         0.593293         2.591103
 O        -5.245925         1.263105         3.542774
 H         1.399134         0.042931        -1.572713
 H         1.433619         1.464141        -0.473058
 H         2.237888        -0.172807        -0.056118
 H        -2.836997        -1.248710        -0.181478
 H        -2.851754         1.627427        -0.594274
 H        -3.068208        -0.597127         2.530221
 H        -2.899439         1.039508         2.052123
 H        -5.105377         0.630634         0.526556
 H        -5.164021        -1.084848         1.202823
 H        -6.724385         0.261195         2.663871
