19
Iteration:  4440
 C         1.463029         0.258648        -0.332991
 C        -0.010950         0.448478         0.153511
 C        -1.253993         0.281417         0.152659
 C        -2.631912         0.047834         0.696975
 O        -3.473357        -0.460277        -0.447528
 C        -3.279035         1.368102         1.335452
 C        -4.753707         1.326581         1.427559
 C        -5.446354         0.499860         2.478205
 O        -4.975954        -0.496304         3.045211
 H         2.113252         0.041347         0.554387
 H         1.640957        -0.704936        -0.864339
 H         1.865384         1.066687        -0.987601
 H        -2.630085        -0.707949         1.578767
 H        -3.172709        -1.413367        -0.524489
 H        -2.723776         1.360131         2.293311
 H        -2.933497         2.345795         0.882604
 H        -5.225075         2.373146         1.555188
 H        -5.262848         0.973719         0.572914
 H        -6.538037         0.885560         2.613418
