19
Iteration:  1381
 C         1.361731        -0.013209         0.200513
 C        -0.060726         0.092447        -0.107752
 C        -1.267713        -0.130217        -0.288878
 C        -2.673669         0.095909        -0.226108
 O        -2.875441         1.516179        -0.658823
 C        -3.301592        -0.188408         1.251661
 C        -4.756810         0.035450         1.575604
 C        -5.104579         0.147211         3.065750
 O        -5.755909         1.048355         3.528231
 H         1.718893        -0.995864         0.573007
 H         1.915961         0.352369        -0.669952
 H         1.605027         0.705484         1.020576
 H        -3.070753        -0.535092        -0.996209
 H        -2.854564         2.122236         0.137651
 H        -3.047086        -1.303821         1.421069
 H        -2.753225         0.701325         1.613312
 H        -4.909363         0.788015         0.822174
 H        -5.248288        -0.806273         1.197061
 H        -4.639015        -0.751096         3.492263
