19
Iteration:   489charge 0 multiplicity 1
 C         1.458339        -0.513567        -0.288163
 C         0.062405        -0.059165         0.016097
 C        -1.114699         0.182192         0.006104
 C        -2.625025         0.239610         0.120715
 O        -3.167725         1.237555        -0.685430
 C        -3.088059         0.534188         1.570168
 C        -4.628215         0.765808         1.544642
 C        -5.290009         0.695155         2.910009
 O        -5.943690        -0.268517         3.293973
 H         2.149531        -0.248898         0.451177
 H         1.365304        -1.624754        -0.288187
 H         1.830818        -0.178529        -1.242620
 H        -2.928612        -0.799252        -0.237578
 H        -2.497950         1.944656        -0.727547
 H        -2.564709        -0.037267         2.244636
 H        -2.855885         1.580938         1.887668
 H        -4.723336         1.875072         1.370570
 H        -5.025128        -0.112737         0.958090
 H        -5.300847         1.694961         3.464470
