19
Iteration:  3029
 C         1.294722         0.443438        -0.012402
 C        -0.144313         0.181582        -0.127669
 C        -1.302658        -0.081527         0.086910
 C        -2.836778        -0.225693         0.129336
 O        -3.530469         0.924880        -0.359370
 C        -3.187534        -0.371045         1.594685
 C        -4.734032        -0.617064         2.043887
 C        -5.283532         0.782029         2.211892
 O        -4.716272         1.606594         2.909383
 H         1.800545         0.180857         0.866881
 H         1.793424        -0.169889        -0.802118
 H         1.584446         1.483758        -0.163711
 H        -3.130178        -1.124717        -0.480127
 H        -2.931892         1.526546        -0.807748
 H        -2.689802        -1.267727         1.982572
 H        -2.800904         0.546926         2.098608
 H        -5.319704        -0.988817         1.075101
 H        -4.934534        -1.324892         2.948059
 H        -6.102462         1.075661         1.531366
