19
Iteration:  2279
 C         1.072992         0.261619         0.451996
 C        -0.272632         0.234803        -0.081897
 C        -1.469775         0.083397        -0.047102
 C        -2.888218         0.012451         0.042262
 O        -3.586246         1.203024        -0.049565
 C        -3.197759        -0.714586         1.359981
 C        -4.630060        -0.609001         1.790378
 C        -5.145304         0.718563         2.168372
 O        -4.318718         1.501729         2.588347
 H         1.902692         0.825483        -0.061846
 H         1.084422         0.436606         1.589489
 H         1.407314        -0.795585         0.433241
 H        -3.372988        -0.539728        -0.858494
 H        -3.240893         1.873811         0.529707
 H        -2.854389        -1.769250         1.161342
 H        -2.682630        -0.265071         2.275580
 H        -5.507213        -0.990061         1.196112
 H        -4.619811        -1.046386         2.788433
 H        -6.261395         0.940595         2.265040
