19
Iteration:  4389charge 0 multiplicity 1
 C         1.352492         0.338377        -0.274236
 C        -0.102172         0.141729        -0.183690
 C        -1.252988         0.112721         0.303252
 C        -2.611655         0.146442         0.886310
 O        -3.531736        -0.438543        -0.074941
 C        -3.252932         1.606549         1.297438
 C        -4.753235         1.542376         1.404663
 C        -5.372221         0.303541         2.238250
 O        -4.858630        -0.604761         2.887922
 H         1.904021         0.420475         0.669400
 H         1.867689        -0.453059        -0.748516
 H         1.522113         1.252525        -0.933804
 H        -2.605043        -0.496861         1.748408
 H        -2.890882        -1.038372        -0.485532
 H        -2.706515         1.889873         2.196628
 H        -2.969496         2.292908         0.516625
 H        -5.286992         2.456180         1.701695
 H        -5.213581         1.324021         0.374437
 H        -6.472608         0.415979         2.069808
