19
Iteration:  4628charge 0 multiplicity 1
 C         1.244663         0.195856         0.389939
 C        -0.195011         0.163589         0.203696
 C        -1.342845         0.386659        -0.048228
 C        -2.712524         0.039746         0.134384
 O        -3.455743        -0.234124        -1.058065
 C        -3.276295         1.141172         0.969669
 C        -4.793737         0.918142         1.341245
 C        -5.198226         0.304942         2.734438
 O        -4.675350         0.124207         3.827957
 H         1.816364        -0.526399         1.010607
 H         1.745101         0.134663        -0.546287
 H         1.433277         1.276171         0.729571
 H        -2.786829        -0.936082         0.758603
 H        -2.892058         0.002163        -1.786977
 H        -2.820368         1.339917         1.990340
 H        -3.327063         2.149282         0.449387
 H        -5.346950         1.903838         1.273304
 H        -5.196350         0.261056         0.606097
 H        -6.240405         0.055174         2.675062
