19
Iteration:   192
 C         1.491060        -0.035584         0.068963
 C        -0.029649         0.011004        -0.066903
 C        -1.248741        -0.045717        -0.139899
 C        -2.830980         0.184861        -0.104646
 O        -3.060816         1.526027        -0.673562
 C        -3.158584        -0.190767         1.298856
 C        -4.579705        -0.140896         1.655157
 C        -4.926186         0.671469         2.929308
 O        -6.025835         0.663436         3.422805
 H         1.763742         0.391534         1.041754
 H         1.844498        -1.149173         0.076998
 H         2.030859         0.485675        -0.730115
 H        -3.259622        -0.420356        -0.858796
 H        -2.746575         2.117104         0.066295
 H        -2.827841        -1.347627         1.366210
 H        -2.704127         0.421068         2.059875
 H        -5.130377         0.535150         0.955029
 H        -5.180470        -1.050683         1.482036
 H        -4.048524         1.300836         3.032796
