19
Iteration:  4435
 C         1.442959         0.240327        -0.322858
 C         0.028629         0.408074         0.146710
 C        -1.235283         0.321059         0.108905
 C        -2.640633         0.035797         0.725580
 O        -3.496883        -0.436436        -0.371659
 C        -3.236899         1.377720         1.323078
 C        -4.816076         1.344648         1.419104
 C        -5.427845         0.474834         2.464258
 O        -4.982567        -0.514205         3.031072
 H         2.182243         0.194106         0.483821
 H         1.702144        -0.680825        -0.894656
 H         1.758296         1.132188        -0.859870
 H        -2.476002        -0.613576         1.567811
 H        -3.296868        -1.342757        -0.576864
 H        -2.747674         1.353566         2.307564
 H        -2.894233         2.231575         0.752685
 H        -5.142000         2.356321         1.462567
 H        -5.370310         0.972680         0.469471
 H        -6.434553         0.861726         2.536959
