19
Iteration:   296charge 0 multiplicity 1
 C         1.480527        -0.236165        -0.234091
 C         0.061306         0.062066        -0.176412
 C        -1.125079         0.183043        -0.156410
 C        -2.618444         0.099671         0.046116
 O        -3.080365         1.350704        -0.493743
 C        -3.058089        -0.009961         1.484418
 C        -4.573956         0.158549         1.650278
 C        -5.126856         0.734483         2.991757
 O        -6.287703         0.393643         3.323242
 H         2.057888         0.182051         0.677812
 H         1.585469        -1.299010        -0.161564
 H         2.048393         0.165476        -1.137949
 H        -2.843012        -0.818287        -0.582771
 H        -2.341614         1.673939        -1.070176
 H        -2.746026        -0.876011         2.017472
 H        -2.768066         0.898869         1.958296
 H        -4.928580         1.169250         1.115073
 H        -5.170895        -0.719510         1.330457
 H        -4.524273         1.569532         3.490706
