19
Iteration:  2333
 C         0.877971         0.345197         0.695816
 C        -0.440788         0.124592         0.218167
 C        -1.542234         0.047041        -0.323218
 C        -3.007934        -0.101005        -0.158107
 O        -3.642052         1.234513        -0.107506
 C        -3.093794        -0.775912         1.165552
 C        -4.429793        -0.659763         1.868727
 C        -4.962721         0.810590         2.171981
 O        -4.241463         1.604466         2.713527
 H         1.346614         1.173331         0.115895
 H         0.947512         0.449743         1.768743
 H         1.409369        -0.600066         0.497399
 H        -3.619455        -0.564874        -0.973085
 H        -3.089759         1.659892         0.544789
 H        -2.793637        -1.762585         0.763230
 H        -2.288226        -0.654836         1.896112
 H        -5.298533        -1.115746         1.369340
 H        -4.344132        -0.938216         2.939043
 H        -5.938393         1.234734         1.866888
