19
Iteration:  2894
 C         1.336947         0.068112         0.046765
 C        -0.147007        -0.046036        -0.024680
 C        -1.335561         0.030535         0.028005
 C        -2.730450        -0.018677        -0.011802
 O        -3.424603         0.932703        -0.833475
 C        -3.170938         0.347199         1.438681
 C        -4.495418        -0.445535         1.889992
 C        -5.296001         0.329233         2.923038
 O        -5.116207         1.529158         3.066175
 H         1.660829         0.386107         1.026313
 H         1.704164        -0.881895        -0.148063
 H         1.697777         0.707699        -0.719719
 H        -3.017757        -1.049237        -0.150500
 H        -3.027262         0.878150        -1.735654
 H        -2.465857         0.210338         2.274381
 H        -3.341572         1.441948         1.371792
 H        -5.168767        -0.804831         0.986256
 H        -4.303187        -1.454217         2.413703
 H        -6.040069        -0.215849         3.637375
