19
Iteration:  3354
 C         1.178426        -0.135606         0.149771
 C        -0.157820         0.096181        -0.092227
 C        -1.367756         0.128178        -0.260374
 C        -2.801242         0.160716        -0.003742
 O        -3.420051         1.333643        -0.594800
 C        -3.006571         0.023643         1.531142
 C        -4.262846        -0.663659         2.100834
 C        -5.386278         0.300419         2.608260
 O        -5.162335         1.454375         2.932520
 H         1.361715        -1.234390         0.008681
 H         1.747778         0.447450        -0.524117
 H         1.599815        -0.130086         1.144460
 H        -3.370480        -0.719732        -0.547818
 H        -2.903101         2.046767        -0.141253
 H        -2.078317        -0.440912         1.855664
 H        -3.011828         1.043158         1.917913
 H        -4.779038        -1.121729         1.235815
 H        -4.207807        -1.480514         2.953056
 H        -6.409702        -0.139307         2.440951
