19
Iteration:  2225
 C         1.268004         0.218625        -0.038158
 C        -0.104734         0.146260         0.260319
 C        -1.292343         0.113386         0.234053
 C        -2.716696        -0.088765         0.095246
 O        -3.528985         1.147339        -0.261121
 C        -3.294337        -0.621398         1.474019
 C        -4.790023        -0.497958         1.567612
 C        -5.327219         0.707886         2.347933
 O        -4.578596         1.535168         2.791399
 H         1.429258         0.812212        -0.947835
 H         1.794879         0.922985         0.685337
 H         1.904488        -0.618925        -0.244648
 H        -2.892785        -0.710325        -0.819917
 H        -3.337996         1.896431         0.306600
 H        -3.212929        -1.738926         1.409646
 H        -2.913311        -0.209938         2.441648
 H        -5.413407        -0.373337         0.651982
 H        -5.190289        -1.304488         2.100849
 H        -6.354529         0.457586         2.807061
