19
Iteration:  3940charge 0 multiplicity 1
 C         1.243939         0.190661         0.485384
 C        -0.136687         0.350244         0.130988
 C        -1.405482         0.356476         0.063498
 C        -2.797138        -0.006265         0.410323
 O        -3.364845        -0.778016        -0.658058
 C        -3.576475         1.467539         0.906306
 C        -5.002122         1.276957         1.402037
 C        -5.181729         0.390903         2.597298
 O        -4.225431        -0.055782         3.141126
 H         1.866295         1.132535         0.490603
 H         1.195116        -0.155610         1.516061
 H         1.767028        -0.611191        -0.123403
 H        -2.832607        -0.752907         1.267111
 H        -3.353432        -0.036745        -1.285655
 H        -2.873626         2.001640         1.540373
 H        -3.716957         2.024326        -0.032740
 H        -5.428275         2.272151         1.627072
 H        -5.676592         0.770212         0.627726
 H        -6.214986         0.062452         2.859832
