19
Iteration:  4453charge 0 multiplicity 1
 C         1.350405         0.262518        -0.283441
 C        -0.041856         0.489321         0.040522
 C        -1.211467         0.207282         0.362069
 C        -2.661643         0.093222         0.571648
 O        -3.374121        -0.491923        -0.579725
 C        -3.214326         1.304229         1.350796
 C        -4.785899         1.314348         1.483777
 C        -5.459943         0.508726         2.516804
 O        -4.968409        -0.429513         3.087601
 H         2.011232         0.152753         0.614273
 H         1.248112        -0.619069        -0.867880
 H         1.877172         1.079612        -0.892584
 H        -2.743293        -0.744274         1.326194
 H        -3.090969        -1.397823        -0.617941
 H        -2.834889         1.337337         2.380258
 H        -2.963707         2.194069         0.745606
 H        -5.074617         2.431790         1.562916
 H        -5.095990         1.020293         0.483331
 H        -6.562135         0.818567         2.806801
