19
Iteration:   176
 C         1.329492         0.007889         0.116210
 C        -0.076487         0.008015        -0.108543
 C        -1.257275        -0.056199        -0.232345
 C        -2.645700         0.153585        -0.180244
 O        -2.992131         1.510239        -0.588238
 C        -3.154537        -0.262108         1.333742
 C        -4.680637        -0.093394         1.661662
 C        -4.929608         0.695256         2.896342
 O        -6.006349         0.643642         3.442979
 H         1.644885         0.456868         1.065672
 H         1.735997        -0.954113         0.115857
 H         1.853183         0.591902        -0.653091
 H        -3.187079        -0.559493        -0.881135
 H        -2.279409         2.149085        -0.421786
 H        -2.806353        -1.235676         1.457854
 H        -2.582569         0.557755         1.937560
 H        -5.108806         0.465841         0.846914
 H        -5.248882        -1.016056         1.820473
 H        -4.106466         1.408019         3.364367
