19
Iteration:  2470
 C         1.147800         0.697307         0.091229
 C        -0.199847         0.213682         0.206200
 C        -1.399066        -0.017746         0.380208
 C        -2.739609        -0.350972         0.081138
 O        -3.370778         0.887914        -0.562933
 C        -3.623876        -0.744749         1.244154
 C        -5.069396        -0.200439         1.500666
 C        -5.112297         0.936545         2.505423
 O        -4.168626         1.280815         3.180907
 H         1.189057         1.685446        -0.339869
 H         1.815746         0.501663         0.923771
 H         1.656378        -0.004087        -0.568610
 H        -2.735280        -1.146652        -0.719790
 H        -2.673337         1.440207        -1.014606
 H        -3.636936        -1.861957         1.126630
 H        -2.904292        -0.600279         2.046507
 H        -5.307511         0.141255         0.518977
 H        -5.685460        -0.949899         1.819980
 H        -6.118546         1.462511         2.395482
