19
Iteration:   504
 C         1.428122        -0.550911        -0.204136
 C         0.064560        -0.032029         0.001513
 C        -1.123030         0.117602         0.033296
 C        -2.576343         0.285593         0.092453
 O        -3.204794         1.329265        -0.788083
 C        -3.047711         0.594162         1.547634
 C        -4.611329         0.746818         1.571676
 C        -5.325662         0.691319         2.940559
 O        -5.929333        -0.302676         3.354413
 H         2.175777        -0.209219         0.583223
 H         1.430810        -1.597995        -0.252342
 H         1.808784        -0.144350        -1.173710
 H        -3.116535        -0.688324        -0.172531
 H        -2.479049         1.721074        -1.279262
 H        -2.923936        -0.425342         2.134003
 H        -2.310207         1.317311         1.730977
 H        -4.808279         1.645947         1.023858
 H        -5.082929        -0.017137         1.031638
 H        -5.288312         1.479405         3.692498
