19
Iteration:  2462charge 0 multiplicity 1
 C         1.168874         0.652882         0.111619
 C        -0.204970         0.224174         0.280999
 C        -1.374058         0.007082         0.283874
 C        -2.785123        -0.308635         0.060800
 O        -3.419105         0.876248        -0.561613
 C        -3.585167        -0.773954         1.303806
 C        -5.000283        -0.184659         1.529155
 C        -5.078367         0.954030         2.407848
 O        -4.174560         1.261346         3.176012
 H         1.140623         1.734919        -0.303955
 H         1.626515         0.623254         1.106514
 H         1.604558        -0.033696        -0.710285
 H        -2.817817        -1.035738        -0.754389
 H        -2.699685         1.422626        -0.966969
 H        -3.812287        -1.817377         1.049671
 H        -2.991153        -0.634220         2.203900
 H        -5.479685         0.100199         0.579256
 H        -5.684478        -1.035309         1.810406
 H        -6.060310         1.393368         2.599488
