19
Iteration:   524
 C         1.415314        -0.510664        -0.096824
 C        -0.013123        -0.121735        -0.055930
 C        -1.207912         0.144673        -0.002571
 C        -2.617547         0.395780         0.061818
 O        -3.076349         1.377832        -0.882353
 C        -3.102798         0.559822         1.564849
 C        -4.622843         0.678855         1.606768
 C        -5.208536         0.647702         2.980985
 O        -5.885807        -0.301686         3.375572
 H         1.938866        -0.183679         0.809479
 H         1.472882        -1.535215        -0.076104
 H         1.980364        -0.196728        -0.983091
 H        -3.289406        -0.483875        -0.246586
 H        -2.643954         1.203376        -1.732906
 H        -2.826745        -0.405209         2.042366
 H        -2.697688         1.397068         2.087871
 H        -4.974491         1.574693         1.104540
 H        -5.163546         0.011624         0.955831
 H        -5.141245         1.605237         3.610636
