19
Iteration:  3134
 C         1.106057         0.761874        -0.437271
 C        -0.193920         0.161943        -0.137392
 C        -1.237773        -0.298960         0.218122
 C        -2.730023        -0.350659         0.497654
 O        -3.168346         1.117860         0.229209
 C        -3.399795        -0.918426         1.795926
 C        -4.918169        -0.622042         1.782205
 C        -5.294468         0.854178         2.066691
 O        -4.598951         1.781166         2.450228
 H         2.052307         0.332182         0.149380
 H         1.291151         0.827701        -1.528688
 H         0.991387         1.873073        -0.154960
 H        -3.110807        -0.891188        -0.329673
 H        -2.404908         1.609474        -0.095940
 H        -3.335913        -1.994931         2.000123
 H        -2.958401        -0.395227         2.648396
 H        -5.229051        -0.745974         0.793443
 H        -5.548438        -1.266255         2.325924
 H        -6.440964         0.996356         2.063109
