19
Iteration:  4174
 C         1.410937         0.431300        -0.512990
 C        -0.153235         0.453988        -0.247828
 C        -1.174001         0.165253         0.346377
 C        -2.531576        -0.110341         0.907917
 O        -3.175867        -0.616994        -0.289632
 C        -3.214904         1.145001         1.617179
 C        -4.707365         1.324516         1.232588
 C        -5.650936         0.496113         2.238653
 O        -5.223449        -0.179650         3.182308
 H         1.955864         1.018524         0.242885
 H         1.698975        -0.636165        -0.285730
 H         1.795341         0.844765        -1.437815
 H        -2.353032        -0.970962         1.595160
 H        -3.235232         0.192781        -0.865864
 H        -3.035355         0.886425         2.658139
 H        -2.706778         2.077140         1.309424
 H        -4.904823         2.441814         1.365572
 H        -4.806974         1.160439         0.110877
 H        -6.779194         0.540435         2.224996
