19
Iteration:  1590charge 0 multiplicity 1
 C         1.429160        -0.085984        -0.328564
 C         0.059940        -0.028019         0.018819
 C        -1.129081         0.070664         0.366857
 C        -2.576514         0.150368         0.234334
 O        -2.963757         1.034295        -0.779888
 C        -3.318783         0.514369         1.493177
 C        -4.915981         0.329188         1.311844
 C        -5.713408         0.247028         2.559037
 O        -5.236773         0.531471         3.618257
 H         1.798816        -1.166820        -0.604842
 H         1.812079         0.686690        -1.002395
 H         1.988818         0.002078         0.687942
 H        -2.912620        -0.860509         0.214246
 H        -2.877904         1.906436        -0.408268
 H        -3.093023        -0.069301         2.457805
 H        -3.412599         1.624521         1.565580
 H        -5.320848         1.083586         0.558705
 H        -5.086643        -0.655978         0.786865
 H        -6.711679        -0.223575         2.646923
