19
Iteration:  3634charge 0 multiplicity 1
 C         1.529027         0.537754         0.035119
 C         0.020381        -0.017353         0.041790
 C        -1.199368        -0.000016         0.099622
 C        -2.682934        -0.287884         0.138021
 O        -3.352383         0.214745        -1.089376
 C        -3.323933         0.265053         1.400159
 C        -4.942297         0.427133         1.402703
 C        -5.438944         0.953044         2.712125
 O        -4.949898         0.776021         3.813948
 H         1.771621         0.809199        -0.973137
 H         1.337280         1.454121         0.541209
 H         2.325711        -0.040230         0.478657
 H        -2.884015        -1.459467         0.097358
 H        -2.790123        -0.192630        -1.780806
 H        -2.901249        -0.305928         2.215611
 H        -2.886895         1.250042         1.577947
 H        -5.455136         1.044297         0.637161
 H        -5.711223        -0.471588         1.251430
 H        -6.514991         1.262173         2.589639
