19
Iteration:  3886charge 0 multiplicity 1
 C         1.215660         0.077903         0.390886
 C        -0.186546         0.304077         0.499147
 C        -1.383298         0.242696         0.429124
 C        -2.895065         0.260411         0.395838
 O        -3.450993        -0.544855        -0.755527
 C        -3.744307         1.489392         0.634473
 C        -5.090582         1.000539         1.214767
 C        -4.994700         0.423855         2.688588
 O        -3.949898        -0.030286         3.163986
 H         1.722565         0.948088        -0.099013
 H         1.647954        -0.184681         1.342791
 H         1.304576        -0.869612        -0.223090
 H        -3.132148        -0.363423         1.304292
 H        -2.978017        -0.055096        -1.449662
 H        -3.177675         2.075903         1.347757
 H        -3.871764         1.919943        -0.333948
 H        -5.881184         1.698358         0.929323
 H        -5.271438         0.122863         0.723289
 H        -5.978104         0.021339         3.067215
