19
Iteration:   821charge 0 multiplicity 1
 C         1.466089        -0.234198        -0.123283
 C        -0.097504        -0.401826         0.022557
 C        -1.311495        -0.087760         0.001767
 C        -2.729842         0.276455        -0.039428
 O        -2.831662         1.667669        -0.451730
 C        -3.275191         0.288752         1.356841
 C        -4.774716         0.308356         1.374526
 C        -5.228896         0.731432         2.725318
 O        -5.706044         0.015373         3.603096
 H         1.975063        -0.099297         0.893296
 H         2.024260        -1.039666        -0.663121
 H         1.726315         0.638828        -0.766276
 H        -3.317945        -0.386142        -0.770837
 H        -2.494462         1.897866        -1.318220
 H        -2.680442        -0.340663         2.122848
 H        -2.854578         1.177142         1.848158
 H        -4.884703         1.189943         0.683091
 H        -5.249099        -0.727577         1.108976
 H        -5.247357         1.925408         2.814511
