19
Iteration:  1408
 C         1.450236         0.016867         0.045292
 C        -0.076857        -0.113169         0.070797
 C        -1.275860        -0.096446        -0.094763
 C        -2.704608         0.218834        -0.157163
 O        -2.953808         1.471830        -0.710028
 C        -3.242954        -0.026558         1.309838
 C        -4.809511         0.053718         1.491612
 C        -5.140002         0.062435         2.972099
 O        -5.733023         1.006496         3.529068
 H         1.991935        -0.921314         0.151996
 H         1.686158         0.424178        -0.951298
 H         1.858765         0.720387         0.764363
 H        -3.177275        -0.538957        -0.829993
 H        -2.241722         2.116315        -0.457437
 H        -2.989028        -1.044630         1.494559
 H        -2.681276         0.716381         1.905579
 H        -5.185642         0.923394         0.900739
 H        -5.134807        -0.879945         0.889737
 H        -4.574152        -0.781666         3.553155
