19
Iteration:  3482charge 0 multiplicity 1
 C         1.392071         0.048985        -0.422433
 C        -0.037625         0.218387        -0.152610
 C        -1.156395         0.003388         0.198151
 C        -2.649499         0.019161         0.334093
 O        -3.082257         0.919551        -0.644054
 C        -3.240385        -0.025094         1.671103
 C        -4.752223        -0.261608         1.641967
 C        -5.583919         0.342850         2.736354
 O        -5.321462         1.459264         3.164099
 H         1.515822        -0.583019        -1.333245
 H         1.947392         1.009161        -0.598804
 H         1.906320        -0.411546         0.469333
 H        -2.857076        -0.902387        -0.090866
 H        -2.552201         1.723187        -0.487590
 H        -2.748647        -0.934357         2.125240
 H        -2.912283         0.875939         2.249962
 H        -5.162218         0.365891         0.825675
 H        -4.995522        -1.262290         1.438180
 H        -6.360721        -0.312196         3.173568
