19
Iteration:  4648charge 0 multiplicity 1
 C         1.321247         0.172641         0.463840
 C        -0.098732         0.268439         0.186331
 C        -1.318308         0.247584        -0.098961
 C        -2.752878         0.148360         0.098883
 O        -3.509157        -0.229381        -1.085806
 C        -3.389849         1.315144         0.924628
 C        -4.757676         0.776101         1.435378
 C        -5.248612         0.343396         2.785754
 O        -4.632461         0.118277         3.790486
 H         1.506859        -0.815098         0.964648
 H         1.910001        -0.044041        -0.394735
 H         1.786178         0.979306         1.128806
 H        -2.944582        -0.769132         0.642420
 H        -2.913797        -0.217679        -1.847107
 H        -2.562389         1.411188         1.729221
 H        -3.543438         2.229594         0.256638
 H        -5.570803         1.494535         1.231220
 H        -5.068464        -0.188605         0.874403
 H        -6.395321         0.150040         2.766744
