19
Iteration:  4178charge 0 multiplicity 1
 C         1.368596         0.424886        -0.487968
 C        -0.127787         0.464168        -0.245290
 C        -1.208696         0.204276         0.343355
 C        -2.498861        -0.087400         0.909879
 O        -3.175450        -0.630232        -0.282685
 C        -3.201711         1.125079         1.631360
 C        -4.691822         1.311456         1.221352
 C        -5.641266         0.472879         2.206301
 O        -5.206739        -0.164655         3.164251
 H         1.976663         0.914322         0.282637
 H         1.623632        -0.652758        -0.362216
 H         1.680247         0.727911        -1.506678
 H        -2.451008        -0.963596         1.532629
 H        -3.305667         0.131162        -0.850816
 H        -3.066839         0.930201         2.718260
 H        -2.759245         2.112621         1.330711
 H        -4.881958         2.349206         1.463130
 H        -4.915754         1.219807         0.204592
 H        -6.775862         0.645082         2.316417
