19
Iteration:   290
 C         1.463996        -0.250209        -0.209453
 C         0.066448         0.104515        -0.179016
 C        -1.162579         0.243104        -0.150118
 C        -2.595766         0.074589         0.045598
 O        -3.079177         1.325494        -0.506831
 C        -3.094085        -0.007283         1.489922
 C        -4.556189         0.144869         1.687747
 C        -5.114319         0.709449         2.982531
 O        -6.246078         0.418941         3.301568
 H         1.948585         0.136958         0.647623
 H         1.514103        -1.372716        -0.141836
 H         1.979381         0.115437        -1.063974
 H        -3.009134        -0.645706        -0.688670
 H        -2.338228         1.705718        -1.020325
 H        -2.915445        -1.058228         1.918616
 H        -2.657010         0.902322         2.068911
 H        -4.759754         0.914540         0.986384
 H        -5.208865        -0.677594         1.315233
 H        -4.483756         1.598303         3.433692
