19
Iteration:  2817charge 0 multiplicity 1
 C         1.307915         0.033623        -0.261055
 C        -0.089416        -0.099775        -0.110828
 C        -1.230945        -0.198476         0.242507
 C        -2.713678         0.062028         0.023099
 O        -2.904052         0.771504        -1.137007
 C        -3.396528         0.660095         1.291643
 C        -4.554276        -0.096858         1.850492
 C        -5.184732         0.263431         3.161218
 O        -5.642646         1.340148         3.488190
 H         1.533510         0.698496         0.605367
 H         1.695524        -0.936581         0.035398
 H         1.643219         0.645400        -1.072108
 H        -3.153177        -0.940995        -0.072450
 H        -1.973046         0.894286        -1.371181
 H        -2.741063         0.534426         2.167400
 H        -3.698259         1.671106         1.083572
 H        -5.416051        -0.226175         1.158023
 H        -4.287223        -1.125415         2.102389
 H        -5.534831        -0.718044         3.545985
