19
Iteration:   172charge 0 multiplicity 1
 C         1.309563         0.033617         0.114851
 C        -0.069476         0.001029        -0.104501
 C        -1.274266        -0.054304        -0.258784
 C        -2.648434         0.135083        -0.196476
 O        -2.981427         1.493856        -0.550783
 C        -3.135748        -0.232832         1.347359
 C        -4.655350        -0.080104         1.634610
 C        -4.946964         0.714409         2.920207
 O        -6.016656         0.639636         3.459951
 H         1.580206         0.458278         1.090982
 H         1.791862        -1.079805         0.141602
 H         1.882840         0.610649        -0.633602
 H        -3.084223        -0.587133        -0.987936
 H        -2.199747         2.098646        -0.541379
 H        -2.889607        -1.358202         1.363973
 H        -2.713828         0.524533         1.953393
 H        -5.191554         0.421866         0.687476
 H        -5.194610        -1.011505         1.805396
 H        -4.002559         1.349540         3.261065
