19
Iteration:  4321charge 0 multiplicity 1
 C         1.147051         0.366086        -0.581101
 C        -0.047256         0.288293         0.338320
 C        -1.223898         0.080357         0.611224
 C        -2.661741         0.047228         0.893726
 O        -3.489011        -0.484061        -0.148059
 C        -3.215022         1.411062         1.272025
 C        -4.776596         1.601322         1.514391
 C        -5.236691         0.265987         1.915130
 O        -4.789640        -0.400658         2.826757
 H         2.172140         0.585004        -0.249210
 H         1.176584        -0.577655        -1.095624
 H         0.682183         1.068166        -1.286586
 H        -2.861129        -0.551891         1.782525
 H        -3.623046        -1.429393        -0.171721
 H        -2.716117         1.817105         2.156584
 H        -3.023386         2.129706         0.466570
 H        -4.886109         2.433724         2.295757
 H        -5.248539         1.879170         0.596642
 H        -6.041661        -0.241816         1.269466
