19
Iteration:  4332
 C         1.069569         0.313274        -0.520757
 C        -0.048104         0.315886         0.283393
 C        -1.207175         0.237176         0.665827
 C        -2.637650        -0.067359         0.923844
 O        -3.583284        -0.460582        -0.139833
 C        -3.200285         1.359314         1.216185
 C        -4.784321         1.639041         1.518957
 C        -5.297125         0.272024         1.962181
 O        -4.709468        -0.407356         2.780276
 H         1.982660         0.660910         0.008245
 H         1.193686        -0.593917        -1.083819
 H         1.074123         1.128755        -1.317097
 H        -2.484037        -0.801769         1.697813
 H        -3.454779        -1.443947        -0.258290
 H        -2.551649         1.625682         2.061139
 H        -2.823818         1.909621         0.344484
 H        -4.796021         2.559370         2.209317
 H        -5.282276         1.897128         0.601474
 H        -5.919518        -0.203561         1.084619
