19
Iteration:  2986charge 0 multiplicity 1
 C         1.312133         0.155242         0.059015
 C        -0.189136         0.145344         0.083696
 C        -1.351592         0.254168        -0.204384
 C        -2.705553        -0.110740         0.064404
 O        -3.714964         0.705336        -0.582876
 C        -2.943320        -0.257417         1.653332
 C        -4.478848        -0.381299         1.883746
 C        -5.324030         0.728770         2.345911
 O        -4.916149         1.576699         3.101190
 H         1.567855        -0.053784         1.096156
 H         1.798144        -0.715679        -0.564376
 H         1.686758         1.175087        -0.284086
 H        -2.842522        -1.042839        -0.492278
 H        -4.106015         1.303850         0.058211
 H        -2.392071        -1.202707         1.824031
 H        -2.487535         0.498370         2.338023
 H        -5.040097        -0.669432         0.907271
 H        -4.636474        -1.254805         2.537196
 H        -6.300051         0.826344         1.819502
