19
Iteration:   491charge 0 multiplicity 1
 C         1.461272        -0.521143        -0.282526
 C         0.059849        -0.053185         0.023638
 C        -1.117971         0.176973         0.009428
 C        -2.625232         0.239349         0.126668
 O        -3.175399         1.248183        -0.696262
 C        -3.071558         0.541664         1.545049
 C        -4.617811         0.766979         1.539006
 C        -5.301821         0.697700         2.939096
 O        -5.943076        -0.278058         3.299955
 H         2.169861        -0.275763         0.503889
 H         1.372539        -1.550899        -0.280307
 H         1.865213        -0.223198        -1.259195
 H        -3.006219        -0.779912        -0.298825
 H        -2.489302         1.957359        -0.846110
 H        -2.533454        -0.079761         2.306273
 H        -2.888296         1.481594         1.904485
 H        -4.770304         1.819699         1.287058
 H        -5.014271        -0.003193         0.967513
 H        -5.287401         1.681943         3.425181
