19
Iteration:  1089charge 0 multiplicity 1
 C         1.344928        -0.165016        -0.443246
 C         0.042215         0.054413         0.046203
 C        -1.095174        -0.040857         0.219960
 C        -2.543232         0.224445         0.120683
 O        -2.916718         1.306519        -0.715998
 C        -3.157644         0.201002         1.428832
 C        -4.658526         0.453381         1.595711
 C        -5.216937         0.079134         2.902353
 O        -6.176313         0.639187         3.423387
 H         1.921382        -0.845704         0.282187
 H         1.366273        -0.643339        -1.420565
 H         1.972828         0.770543        -0.512736
 H        -2.937837        -0.631183        -0.429736
 H        -2.186780         1.529106        -1.327999
 H        -3.102619        -0.827712         1.908319
 H        -2.620829         0.838700         2.191043
 H        -4.899502         1.643446         1.411707
 H        -5.145242        -0.215202         0.869745
 H        -4.505959        -0.661941         3.447841
