19
Iteration:  4380charge 0 multiplicity 1
 C         1.261440         0.348357        -0.321427
 C        -0.177147         0.195109        -0.099936
 C        -1.277642         0.021048         0.351450
 C        -2.599027         0.167233         0.888826
 O        -3.458181        -0.477120        -0.090503
 C        -3.216074         1.624111         1.302622
 C        -4.789278         1.596785         1.432250
 C        -5.336828         0.288311         2.181405
 O        -4.816860        -0.598486         2.862886
 H         1.703178         0.504407         0.665081
 H         1.609805        -0.579981        -0.807909
 H         1.716022         1.187108        -0.861091
 H        -2.477106        -0.329913         1.866084
 H        -3.131181        -1.184002        -0.663494
 H        -2.705811         1.882825         2.245550
 H        -2.973705         2.338780         0.524550
 H        -5.065231         2.551432         1.733297
 H        -5.139132         1.482934         0.344495
 H        -6.528490         0.136334         1.953877
