19
Iteration:  2341
 C         0.892958         0.388727         0.722503
 C        -0.453120         0.103806         0.193063
 C        -1.582422         0.018946        -0.219266
 C        -3.004104        -0.061619        -0.272038
 O        -3.641039         1.189365        -0.128894
 C        -3.089179        -0.802314         1.144858
 C        -4.488159        -0.522474         1.895533
 C        -4.943204         0.814629         2.136687
 O        -4.200941         1.552131         2.773556
 H         1.510832         1.177154         0.238539
 H         0.935299         0.522289         1.751785
 H         1.283708        -0.584463         0.320136
 H        -3.565975        -0.696407        -0.902128
 H        -3.072116         1.761611         0.384731
 H        -2.820595        -1.841229         0.951433
 H        -2.295272        -0.392554         1.733796
 H        -5.175251        -1.196276         1.458266
 H        -4.288738        -1.151187         2.841071
 H        -6.030297         1.054794         1.845126
