19
Iteration:  4268
 C         1.295647         0.374400        -0.615019
 C        -0.145402         0.086630        -0.162399
 C        -1.142257         0.235849         0.583935
 C        -2.499583         0.012729         1.079337
 O        -3.399091        -0.374779        -0.083122
 C        -3.161729         1.473924         1.362024
 C        -4.754875         1.452912         1.357065
 C        -5.374765         0.246700         2.001449
 O        -5.128755        -0.425263         3.032253
 H         1.682888         0.775730         0.360557
 H         1.930306        -0.425751        -0.794326
 H         1.386996         1.322419        -1.202695
 H        -2.661412        -0.675625         1.911413
 H        -3.135689        -0.925197        -0.817499
 H        -2.889857         2.050607         2.258520
 H        -2.873534         1.999610         0.455913
 H        -5.086861         2.357998         1.771139
 H        -5.231104         1.384020         0.357162
 H        -6.290132         0.015649         1.429434
