19
Iteration:  2505
 C         1.161706         0.742140        -0.036949
 C        -0.206408         0.248397         0.162065
 C        -1.305458        -0.181319         0.332381
 C        -2.730583        -0.364405         0.140482
 O        -3.214066         0.869385        -0.503903
 C        -3.659331        -0.719168         1.352628
 C        -5.028059        -0.061249         1.370623
 C        -5.206718         0.837246         2.577587
 O        -4.282109         1.292948         3.178217
 H         1.323561         1.823450        -0.348039
 H         1.809007         0.716862         0.814057
 H         1.516781         0.193731        -0.963676
 H        -2.838006        -1.291647        -0.444461
 H        -2.396055         1.155430        -0.999760
 H        -3.950687        -1.788537         1.203834
 H        -3.321382        -0.577258         2.374384
 H        -5.360239         0.430890         0.485377
 H        -5.860508        -0.662753         1.588795
 H        -6.264308         1.150690         2.896819
