19
Iteration:  4509
 C         1.214765         0.503411        -0.290832
 C        -0.045127         0.071655         0.231974
 C        -1.209752        -0.140520         0.548542
 C        -2.712922        -0.096311         0.544051
 O        -3.213843        -0.144139        -0.821219
 C        -3.309853         1.269274         1.162824
 C        -4.901042         1.246905         1.416947
 C        -5.490888         0.473632         2.616452
 O        -4.777157        -0.213480         3.309338
 H         2.022400         0.368149         0.464472
 H         1.575418        -0.153869        -1.065052
 H         1.245013         1.564147        -0.717138
 H        -2.958394        -0.956907         1.198371
 H        -2.613551        -0.597077        -1.478349
 H        -2.920768         1.379246         2.206208
 H        -2.947951         2.062315         0.497599
 H        -5.142670         2.345562         1.327042
 H        -5.397763         0.838266         0.500584
 H        -6.545806         0.621470         2.683242
