19
Iteration:  1127
 C         1.576314        -0.160358        -0.354028
 C         0.219415        -0.127710        -0.097514
 C        -1.015340         0.126383         0.031883
 C        -2.497594         0.163911         0.018390
 O        -2.977465         1.271810        -0.651178
 C        -3.332162         0.238426         1.453399
 C        -4.848953         0.414446         1.523310
 C        -5.347158         0.113113         2.907172
 O        -6.116433         0.708614         3.625835
 H         2.001704        -0.836500         0.338392
 H         1.738435        -0.480890        -1.412096
 H         2.020247         0.806372        -0.238667
 H        -2.738149        -0.776376        -0.440308
 H        -2.348736         2.040378        -0.516488
 H        -2.965190        -0.727943         1.802328
 H        -2.746827         0.899202         2.069500
 H        -5.244257         1.212923         1.020720
 H        -5.320502        -0.361188         0.887953
 H        -4.984716        -0.914060         3.288065
