19
Iteration:   998charge 0 multiplicity 1
 C         1.466064        -0.174008        -0.347663
 C         0.014152        -0.189813        -0.332154
 C        -1.104159         0.021638        -0.065603
 C        -2.446908         0.201719         0.136717
 O        -3.068832         1.315653        -0.504529
 C        -2.971394         0.312608         1.614151
 C        -4.484457         0.516994         1.713450
 C        -5.252266         0.247154         3.040625
 O        -6.438162         0.462675         3.182254
 H         1.881174        -0.577649         0.546543
 H         1.940496        -0.899221        -1.123873
 H         1.879767         0.832194        -0.454745
 H        -2.840959        -0.726854        -0.116372
 H        -2.677892         1.421558        -1.355526
 H        -2.741665        -0.707959         2.047903
 H        -2.567659         1.168158         2.119964
 H        -4.769302         1.559237         1.639309
 H        -4.980242        -0.053901         0.936022
 H        -4.713443         0.051422         3.973802
