19
Iteration:  1785charge 0 multiplicity 1
 C         1.124349         0.157963         0.768826
 C        -0.251891         0.123758         0.327226
 C        -1.410326        -0.031315        -0.048488
 C        -2.803248        -0.077713        -0.285440
 O        -3.213754         0.831412        -1.364600
 C        -3.414605         0.130004         1.156892
 C        -4.830824         0.749209         1.295871
 C        -5.197958         0.599030         2.818945
 O        -4.499646         0.253683         3.774814
 H         1.759914        -0.528201         0.128106
 H         1.555092         1.108148         0.872351
 H         1.158773        -0.155098         1.846046
 H        -3.036867        -0.956655        -0.906549
 H        -3.038842         1.759796        -1.218623
 H        -3.178664        -0.674246         1.929409
 H        -2.715199         0.931754         1.505041
 H        -4.734979         1.839265         1.176019
 H        -5.686204         0.482685         0.730330
 H        -6.245016         0.747701         3.128513
