19
Iteration:   426
 C         1.444784        -0.291454        -0.508424
 C         0.060311        -0.197837        -0.112837
 C        -1.100661         0.064317         0.210061
 C        -2.539466         0.190166         0.217767
 O        -2.920811         1.221423        -0.737285
 C        -3.152335         0.558661         1.583891
 C        -4.676690         0.708566         1.567375
 C        -5.325458         0.670456         2.979759
 O        -6.178390        -0.151794         3.325684
 H         2.111012         0.179456         0.277705
 H         1.745516        -1.311065        -0.564400
 H         1.681564         0.116343        -1.530769
 H        -3.007806        -0.798629        -0.127007
 H        -2.160393         1.812412        -0.581655
 H        -2.737892        -0.243166         2.402945
 H        -2.588635         1.431933         1.888760
 H        -4.865628         1.530486         0.929253
 H        -5.155280        -0.092240         1.110430
 H        -5.001505         1.556233         3.703785
