19
Iteration:   354
 C         1.405396        -0.101676        -0.422585
 C         0.016750        -0.272986        -0.148497
 C        -1.120238        -0.005029         0.083107
 C        -2.543404         0.144324         0.109199
 O        -2.796181         1.391394        -0.557412
 C        -3.195763         0.345840         1.598346
 C        -4.634710         0.357949         1.578284
 C        -5.180727         0.648633         2.942949
 O        -6.268004         0.187482         3.346207
 H         1.818437         0.501781         0.398256
 H         1.953596        -1.044672        -0.461872
 H         1.573005         0.390917        -1.372670
 H        -3.030198        -0.819969        -0.246916
 H        -2.897106         1.154409        -1.473254
 H        -2.713986        -0.273208         2.279575
 H        -2.778355         1.375180         1.827076
 H        -5.128068         1.263333         0.993337
 H        -5.166155        -0.553922         1.055965
 H        -4.604773         1.085120         3.673554
