19
Iteration:   916
 C         1.613357        -0.352138        -0.405665
 C         0.141929        -0.206542        -0.135230
 C        -1.009817         0.164136         0.091344
 C        -2.595986         0.231320         0.086301
 O        -3.111266         1.451535        -0.650811
 C        -3.166788         0.158399         1.579569
 C        -4.713115         0.538827         1.566664
 C        -5.213954         0.636932         2.975466
 O        -6.265831         0.138839         3.367177
 H         2.147229        -0.542646         0.583376
 H         1.812992        -1.080101        -1.126134
 H         1.994082         0.595514        -0.866403
 H        -2.900950        -0.690330        -0.237793
 H        -2.249216         1.655565        -1.112676
 H        -3.019019        -0.706854         2.207549
 H        -2.792873         0.825790         2.413567
 H        -4.985732         1.486919         0.992609
 H        -5.241867        -0.412606         1.122902
 H        -4.445279         1.123175         3.635460
