19
Iteration:  2678charge 0 multiplicity 1
 C         1.412497        -0.166944         0.110363
 C        -0.022500         0.118854        -0.063189
 C        -1.249362         0.349395        -0.096383
 C        -2.662920         0.053597         0.028907
 O        -3.581028         0.693010        -0.843662
 C        -3.126461         0.365382         1.450023
 C        -4.553429        -0.135487         1.666919
 C        -5.414438         0.316654         2.780178
 O        -5.147340         1.285215         3.426883
 H         1.990162         0.663021         0.478913
 H         1.621167        -1.008667         0.780187
 H         1.964588        -0.427842        -0.800519
 H        -2.810793        -1.041889        -0.035629
 H        -3.120852         1.495384        -1.118957
 H        -2.393341        -0.226423         2.006750
 H        -3.275718         1.442661         1.553301
 H        -5.162079        -0.180698         0.674409
 H        -4.370659        -1.271557         1.841169
 H        -6.410147        -0.134869         2.935792
