19
Iteration:  3916
 C         1.176528         0.095099         0.443539
 C        -0.216724         0.354864         0.340133
 C        -1.392846         0.482877         0.251045
 C        -2.799045         0.112973         0.424846
 O        -3.410661        -0.675135        -0.661640
 C        -3.655880         1.303076         0.756474
 C        -5.044595         1.147510         1.241864
 C        -5.036322         0.433059         2.593976
 O        -4.062565        -0.053080         3.122015
 H         1.815102         0.942585         0.200316
 H         1.388647        -0.231110         1.510764
 H         1.418652        -0.750769        -0.199217
 H        -2.898476        -0.633838         1.266010
 H        -3.485177         0.028939        -1.343231
 H        -3.097520         1.718823         1.600963
 H        -3.619602         2.039418        -0.093115
 H        -5.294918         2.167980         1.603487
 H        -5.955258         0.711560         0.623915
 H        -6.048670         0.193848         3.009488
