19
Iteration:  1137charge 0 multiplicity 1
 C         1.593381        -0.157337        -0.275111
 C         0.115804        -0.095938        -0.208267
 C        -1.030805         0.066247         0.013237
 C        -2.447209         0.174023         0.023067
 O        -2.991350         1.300706        -0.686362
 C        -3.227916         0.235337         1.501587
 C        -4.850393         0.354656         1.444834
 C        -5.382762         0.032613         2.941148
 O        -6.089779         0.783506         3.622719
 H         2.029619        -0.870660         0.411272
 H         1.933661        -0.501137        -1.274927
 H         2.043720         0.805091        -0.085841
 H        -2.864639        -0.621197        -0.503063
 H        -2.614446         2.141390        -0.341888
 H        -3.044536        -0.751176         2.034773
 H        -2.903177         1.036269         2.210265
 H        -5.286417         1.343964         1.329354
 H        -5.250728        -0.464109         0.866625
 H        -5.019340        -1.014004         3.262655
