19
Iteration:  1061
 C         1.446620        -0.145910        -0.414958
 C        -0.001551         0.029055        -0.068283
 C        -1.151453        -0.064115         0.033605
 C        -2.651414         0.077828         0.136149
 O        -2.875512         1.358288        -0.590087
 C        -3.076308         0.256565         1.581653
 C        -4.524046         0.489576         1.645226
 C        -5.242810         0.117230         2.913512
 O        -6.292118         0.587322         3.325763
 H         1.890954        -0.718290         0.382822
 H         1.493051        -0.670629        -1.390666
 H         2.022850         0.750874        -0.566161
 H        -3.297459        -0.715128        -0.478552
 H        -2.478768         1.357878        -1.452009
 H        -2.677542        -0.457733         2.319469
 H        -2.486894         1.100250         1.955778
 H        -4.798689         1.504521         1.457575
 H        -5.063283        -0.112812         0.751297
 H        -4.552257        -0.529314         3.510686
