19
Iteration:   749charge 0 multiplicity 1
 C         1.273293        -0.545531         0.149968
 C        -0.017972        -0.013481         0.091930
 C        -1.230524         0.209295        -0.084732
 C        -2.686789         0.319773        -0.208121
 O        -3.011254         1.581748        -0.597983
 C        -3.239499         0.196901         1.227305
 C        -4.810985         0.333786         1.205484
 C        -5.223198         0.767197         2.874140
 O        -5.491697        -0.038490         3.728496
 H         1.649004        -0.500874         1.125925
 H         1.376097        -1.618840        -0.237004
 H         1.953072         0.029951        -0.465807
 H        -3.144893        -0.452562        -0.996398
 H        -2.184163         1.924904        -0.996415
 H        -2.986295        -0.789537         1.640900
 H        -2.690831         0.813866         1.999049
 H        -5.332374         1.139137         0.665107
 H        -5.286692        -0.568140         1.082757
 H        -5.096780         1.868474         3.207974
