19
Iteration:  4907
 C         1.176611         0.331662         0.652164
 C        -0.118637         0.078234         0.073225
 C        -1.333214         0.299091        -0.089327
 C        -2.808131         0.027462         0.280110
 O        -3.487071        -0.432373        -0.846291
 C        -3.412980         1.313430         1.024523
 C        -5.016700         0.952553         1.324185
 C        -5.197977         0.397692         2.659354
 O        -4.239364         0.084332         3.359478
 H         1.893443        -0.154350        -0.059398
 H         1.566262         1.367769         0.867083
 H         1.244965        -0.200303         1.568633
 H        -2.750445        -0.853379         0.909688
 H        -3.017526         0.035705        -1.593181
 H        -2.914668         1.487327         1.976730
 H        -3.485500         2.223521         0.344521
 H        -5.701986         1.866162         1.270013
 H        -5.386337         0.363417         0.485039
 H        -6.278799         0.324504         3.092975
