19
Iteration:  3655charge 0 multiplicity 1
 C         1.279701         0.454913         0.135876
 C        -0.047064         0.155594         0.201837
 C        -1.261540         0.058092         0.089059
 C        -2.628043        -0.267005         0.047481
 O        -3.396177         0.078747        -1.103774
 C        -3.278262         0.368807         1.324103
 C        -4.789170         0.528090         1.355885
 C        -5.407410         0.845155         2.728441
 O        -4.838238         0.733632         3.821914
 H         1.545359         0.630677        -0.880961
 H         1.577925         1.316922         0.716284
 H         1.853744        -0.383363         0.465303
 H        -2.874608        -1.350932         0.136197
 H        -3.182593        -0.388333        -1.928047
 H        -3.015353        -0.169121         2.190437
 H        -2.718955         1.285280         1.410687
 H        -5.213042         1.168196         0.534036
 H        -5.228457        -0.436916         0.848358
 H        -6.413538         1.340485         2.611649
