19
Iteration:  1689charge 0 multiplicity 1
 C         1.400607         0.201987         0.427315
 C        -0.071194        -0.035631         0.048639
 C        -1.266141        -0.073586        -0.114249
 C        -2.755238        -0.022814        -0.141615
 O        -3.180476         1.099523        -0.918834
 C        -3.285881         0.146704         1.337194
 C        -4.854552         0.404427         1.404448
 C        -5.382669         0.736282         2.649746
 O        -4.994954         0.312058         3.752729
 H         2.060609        -0.659550         0.042760
 H         1.793728         1.216144         0.185526
 H         1.413510         0.267295         1.563366
 H        -3.185192        -0.952048        -0.655985
 H        -3.156427         0.791953        -1.833296
 H        -3.119900        -0.809513         1.945562
 H        -2.879175         1.011469         1.909148
 H        -5.092722         1.092926         0.530716
 H        -5.317237        -0.614891         1.054419
 H        -6.130620         1.527118         2.755977
