19
Iteration:  4477charge 0 multiplicity 1
 C         1.290562         0.344052        -0.287892
 C        -0.195517         0.347378        -0.039289
 C        -1.254512         0.222735         0.528020
 C        -2.682343        -0.137270         0.674762
 O        -3.165962        -0.287320        -0.687443
 C        -3.307507         1.175736         1.189063
 C        -4.775981         1.336447         1.447644
 C        -5.407459         0.543734         2.545122
 O        -4.919627        -0.373882         3.213992
 H         1.741607         0.208630         0.720964
 H         1.469970        -0.545536        -0.879514
 H         1.831817         1.257305        -0.657835
 H        -2.855574        -1.044296         1.280753
 H        -3.039134        -1.182822        -1.018353
 H        -3.056380         1.316500         2.241584
 H        -2.915760         1.922676         0.503717
 H        -4.969685         2.430745         1.674214
 H        -5.302217         1.139602         0.445566
 H        -6.541769         0.772561         2.751720
