19
Iteration:   888
 C         1.495432        -0.314087        -0.295179
 C         0.088000        -0.103889        -0.254281
 C        -1.078861        -0.011024         0.023631
 C        -2.547702         0.212827         0.063249
 O        -2.939644         1.464600        -0.524449
 C        -3.161981         0.241390         1.466905
 C        -4.702188         0.472352         1.539932
 C        -5.309022         0.723815         2.935510
 O        -6.168738         0.052339         3.488943
 H         1.790813        -0.472456         0.736241
 H         1.673599        -1.277921        -0.896250
 H         2.003276         0.541137        -0.737891
 H        -2.892492        -0.774957        -0.449343
 H        -2.160123         1.698814        -1.108395
 H        -2.999378        -0.713200         2.071835
 H        -2.851704         1.077174         2.079295
 H        -5.075649         1.333931         0.956746
 H        -5.309801        -0.292042         1.050799
 H        -4.884055         1.698454         3.291608
