19
Iteration:  2961
 C         1.374508        -0.025317         0.167496
 C        -0.091881         0.324309        -0.027550
 C        -1.342510         0.333765        -0.163951
 C        -2.730803        -0.119272         0.003421
 O        -3.742902         0.639887        -0.630464
 C        -2.975695        -0.143347         1.512778
 C        -4.449343        -0.454118         1.837863
 C        -5.295822         0.682356         2.485024
 O        -5.032841         1.637676         3.184127
 H         1.678292        -0.275793         1.154030
 H         1.416280        -0.932460        -0.392589
 H         2.060521         0.661184        -0.304966
 H        -2.823803        -1.084860        -0.547663
 H        -3.809324         1.518307        -0.184071
 H        -2.148807        -0.808299         1.810859
 H        -2.815496         0.849098         2.013031
 H        -5.149870        -0.776142         0.892268
 H        -4.543381        -1.339918         2.654419
 H        -6.332082         0.357959         2.424955
