19
Iteration:   483charge 0 multiplicity 1
 C         1.420777        -0.513949        -0.301081
 C         0.090216        -0.078500        -0.018940
 C        -1.128645         0.197156         0.006811
 C        -2.588911         0.238028         0.132435
 O        -3.150849         1.212836        -0.673972
 C        -3.132726         0.569131         1.623924
 C        -4.652684         0.738280         1.575283
 C        -5.275512         0.685384         2.838551
 O        -5.939394        -0.234821         3.276632
 H         2.206213        -0.125676         0.460111
 H         1.443815        -1.605269        -0.347982
 H         1.716408        -0.042099        -1.284696
 H        -2.856659        -0.806184        -0.072053
 H        -2.542907         1.969113        -0.419845
 H        -2.640418        -0.236691         2.372244
 H        -2.612097         1.578959         1.745602
 H        -4.727580         1.784572         1.309034
 H        -5.104632        -0.032476         0.959929
 H        -5.265896         1.570991         3.520856
