19
Iteration:  1975
 C         1.401211        -0.327577         0.081729
 C         0.012790         0.122549         0.187010
 C        -1.176792         0.230203         0.067407
 C        -2.639124         0.209322         0.098179
 O        -3.288618         0.896007        -1.021217
 C        -3.227537         0.580233         1.456345
 C        -4.832142         0.049397         1.295257
 C        -5.467129         0.129584         2.755712
 O        -5.121949         0.928942         3.592626
 H         1.587266        -0.587506        -0.930425
 H         2.180793         0.382946         0.488447
 H         1.664870        -1.127466         0.742055
 H        -2.997652        -0.848453         0.098159
 H        -2.968537         1.835337        -1.012971
 H        -2.779618         0.109226         2.323158
 H        -3.323648         1.634767         1.698351
 H        -5.291999         0.647414         0.536053
 H        -4.917862        -0.961289         0.919697
 H        -6.446738        -0.442241         2.867993
