19
Iteration:  3738
 C         1.259134         0.412070         0.501080
 C        -0.094526        -0.064587         0.131648
 C        -1.269625        -0.016411        -0.056596
 C        -2.708979        -0.122718         0.107824
 O        -3.479921        -0.148882        -1.145665
 C        -3.374467         0.999667         1.065455
 C        -4.938697         0.792202         1.319652
 C        -5.330508         0.566955         2.849808
 O        -4.458143         0.529613         3.708231
 H         1.524228         1.017941        -0.385349
 H         0.951362         1.089794         1.363263
 H         1.960620        -0.373355         0.807508
 H        -3.075856        -1.051957         0.653222
 H        -2.866743        -0.257711        -1.890370
 H        -2.800425         0.830339         2.038266
 H        -3.171332         2.074427         0.707510
 H        -5.473796         1.635300         0.856244
 H        -5.291603        -0.118798         0.920362
 H        -6.246838        -0.028213         3.071547
