19
Iteration:   933charge 0 multiplicity 1
 C         1.503905        -0.341279        -0.433656
 C         0.095305        -0.101872         0.000325
 C        -1.099373         0.180194         0.066034
 C        -2.543461         0.208718         0.132085
 O        -3.082734         1.342917        -0.600125
 C        -3.102134         0.224129         1.558030
 C        -4.590724         0.498506         1.564971
 C        -5.182405         0.509362         2.970993
 O        -6.327759         0.228421         3.327432
 H         2.129462        -0.667575         0.364302
 H         1.473258        -1.165897        -1.240775
 H         1.873495         0.588794        -0.863733
 H        -2.857418        -0.703838        -0.562214
 H        -2.419962         1.792935        -1.193769
 H        -2.878392        -0.810298         1.922337
 H        -2.500557         0.993186         2.087323
 H        -4.660030         1.517564         1.137414
 H        -5.215302         0.038408         0.880334
 H        -4.398792         0.891997         3.712009
