19
Iteration:  3139charge 0 multiplicity 1
 C         1.129465         0.743301        -0.460835
 C        -0.230882         0.226419        -0.138409
 C        -1.277401        -0.317188         0.282362
 C        -2.677715        -0.336639         0.477596
 O        -3.148633         1.112187         0.190924
 C        -3.416140        -0.902999         1.833312
 C        -4.923575        -0.634561         1.745893
 C        -5.297108         0.852764         2.066081
 O        -4.603441         1.768949         2.462433
 H         1.815369         0.232287         0.112307
 H         1.285268         0.793089        -1.534278
 H         1.070019         1.748701        -0.147137
 H        -3.239831        -0.841920        -0.445677
 H        -2.349128         1.678379         0.032302
 H        -3.191654        -2.008315         1.957736
 H        -3.063442        -0.436396         2.794982
 H        -5.271132        -0.748610         0.615579
 H        -5.347020        -1.400104         2.565333
 H        -6.342620         1.097416         2.094868
