19
Iteration:  4363
 C         1.151917         0.301484        -0.362995
 C        -0.208913         0.339349         0.013912
 C        -1.305242         0.064747         0.494027
 C        -2.683029         0.119960         0.931840
 O        -3.486348        -0.498814        -0.103375
 C        -3.165818         1.535799         1.255642
 C        -4.691433         1.493789         1.469696
 C        -5.344965         0.277272         2.034432
 O        -4.702258        -0.467685         2.784728
 H         1.928851         0.446027         0.436666
 H         1.452422        -0.642168        -0.910625
 H         1.347476         1.124764        -1.058379
 H        -2.783938        -0.537870         1.843631
 H        -2.799112        -1.135045        -0.324742
 H        -2.607806         1.725143         2.197245
 H        -2.866001         2.278035         0.471458
 H        -5.051800         2.288038         2.263969
 H        -5.277997         1.786333         0.624779
 H        -6.360124         0.218257         1.693528
