19
Iteration:  4930
 C         1.213742         0.275383         0.571039
 C        -0.099495         0.320990         0.005666
 C        -1.307977         0.185918         0.078676
 C        -2.784597         0.006977         0.301851
 O        -3.455765        -0.445397        -0.849159
 C        -3.573093         1.298453         0.842682
 C        -4.935644         1.077459         1.318994
 C        -5.163288         0.503541         2.741158
 O        -4.338179        -0.105791         3.412490
 H         2.084790        -0.027311        -0.059660
 H         1.506755         1.293558         1.008250
 H         1.213359        -0.377210         1.446350
 H        -2.598357        -0.815534         0.998964
 H        -2.701546        -0.555456        -1.439224
 H        -3.108598         1.596774         1.792615
 H        -3.510124         2.152487         0.090717
 H        -5.442953         2.072694         1.160411
 H        -5.664952         0.490603         0.709783
 H        -6.260391         0.653786         3.122536
