19
Iteration:  2914charge 0 multiplicity 1
 C         1.363279        -0.035938         0.100173
 C        -0.111114         0.094533        -0.084966
 C        -1.334460         0.237449        -0.152389
 C        -2.819195         0.051605         0.104589
 O        -3.496856         0.817956        -0.857189
 C        -3.217394         0.184597         1.592577
 C        -4.476403        -0.498249         1.959761
 C        -5.276717         0.379521         2.800248
 O        -5.023282         1.569433         3.040404
 H         1.475181         0.233172         1.189343
 H         1.724612        -1.021170         0.000614
 H         1.885923         0.754682        -0.420706
 H        -3.084229        -1.042961        -0.129034
 H        -2.877374         1.026892        -1.552691
 H        -2.354333        -0.236509         2.140169
 H        -3.259420         1.251946         1.820501
 H        -5.133883        -0.656850         1.007376
 H        -4.335606        -1.656658         2.310727
 H        -6.270606        -0.023971         3.017629
