19
Iteration:  2904
 C         1.291699         0.009863         0.094496
 C        -0.093678         0.014694        -0.066343
 C        -1.321036         0.141144        -0.064602
 C        -2.781725        -0.021792         0.110102
 O        -3.459668         0.896230        -0.852346
 C        -3.256162         0.284608         1.487847
 C        -4.446498        -0.453014         1.924401
 C        -5.274292         0.360830         2.854189
 O        -5.064990         1.531156         3.040221
 H         1.654446         0.347258         1.063924
 H         1.770972        -0.874232        -0.138807
 H         1.700648         0.692806        -0.626346
 H        -3.015633        -1.054267        -0.216100
 H        -2.863506         0.881892        -1.619065
 H        -2.402977        -0.130746         2.078683
 H        -3.358465         1.343844         1.752214
 H        -5.244161        -0.598490         1.049797
 H        -4.136143        -1.501295         2.386340
 H        -6.147715        -0.193368         3.339865
