19
Iteration:  3837charge 0 multiplicity 1
 C         1.199042         0.147700         0.353078
 C        -0.239492         0.059704         0.383381
 C        -1.455802         0.271017         0.504597
 C        -2.850346         0.037136         0.291789
 O        -3.212618        -0.285307        -1.010498
 C        -3.764135         1.301907         0.773184
 C        -5.167637         0.960301         1.334962
 C        -5.047380         0.356838         2.699724
 O        -4.004379         0.290717         3.299086
 H         1.397474         1.026116        -0.247878
 H         1.547477         0.293552         1.430067
 H         1.683974        -0.745327         0.004519
 H        -3.122453        -0.873890         0.899585
 H        -2.731695        -1.054437        -1.377409
 H        -3.194388         1.526772         1.721732
 H        -3.581285         2.004018        -0.100723
 H        -5.867613         1.844928         1.363774
 H        -5.716977         0.103352         0.686914
 H        -6.006503        -0.111190         3.083839
