19
Iteration:  1576
 C         1.477956        -0.174346        -0.320593
 C         0.080922         0.050728        -0.014053
 C        -1.120869         0.073937         0.322403
 C        -2.565859         0.111272         0.299065
 O        -3.010267         1.014047        -0.748147
 C        -3.383558         0.611208         1.547973
 C        -4.812300         0.316054         1.294015
 C        -5.649919         0.150594         2.527040
 O        -5.357301         0.591153         3.651250
 H         1.574342        -1.167253        -0.772638
 H         1.755562         0.529641        -1.119531
 H         2.147114         0.033169         0.529462
 H        -2.846957        -0.769344        -0.212087
 H        -3.168246         1.909144        -0.344172
 H        -2.956424         0.088377         2.368706
 H        -2.982577         1.598607         1.806844
 H        -5.330034         1.158954         0.808613
 H        -5.042449        -0.573612         0.604333
 H        -6.590917        -0.413367         2.201367
