19
Iteration:  1524charge 0 multiplicity 1
 C         1.530343        -0.304467        -0.414049
 C         0.078394         0.013060         0.039833
 C        -1.043616         0.385868         0.181694
 C        -2.489904         0.192471         0.252713
 O        -3.168677         1.084623        -0.837018
 C        -3.123701         0.483490         1.627233
 C        -4.692704         0.312042         1.415136
 C        -5.637380         0.057772         2.630411
 O        -5.782204         0.652174         3.695342
 H         1.642599        -1.481920        -0.417869
 H         1.940797         0.270396        -1.244731
 H         2.072778        -0.058543         0.594683
 H        -2.604729        -0.876079        -0.204549
 H        -2.313460         1.327858        -1.321354
 H        -2.644316        -0.468233         2.171100
 H        -2.958508         1.560853         2.032076
 H        -5.010693         1.323691         0.989599
 H        -5.077254        -0.455439         0.710609
 H        -6.319432        -0.846566         2.353141
