19
Iteration:  1354
 C         1.298025         0.022070         0.310582
 C        -0.019079        -0.026349        -0.194549
 C        -1.252304        -0.050943        -0.300817
 C        -2.739682         0.095805        -0.160806
 O        -3.096661         1.488969        -0.513872
 C        -3.172829        -0.224640         1.168809
 C        -4.714971         0.076239         1.514130
 C        -4.962345         0.204423         3.003085
 O        -5.716458         1.044524         3.444143
 H         1.456947        -0.946184         0.803763
 H         2.151270         0.252447        -0.400390
 H         1.293916         0.733710         1.143760
 H        -3.295239        -0.640639        -0.876272
 H        -2.585557         2.012863         0.173741
 H        -3.053887        -1.258072         1.074787
 H        -2.502790         0.232599         1.880094
 H        -4.826457         0.989191         0.902939
 H        -5.410299        -0.712936         1.040255
 H        -4.486961        -0.577228         3.455469
