19
Iteration:   784charge 0 multiplicity 1
 C         1.495948        -0.410646         0.034016
 C        -0.020212        -0.184710        -0.086736
 C        -1.228317        -0.007493         0.016001
 C        -2.727564         0.398808        -0.066450
 O        -2.842046         1.717974        -0.609329
 C        -3.387672         0.172314         1.347591
 C        -4.959486         0.277262         1.356013
 C        -5.227749         0.752537         2.788379
 O        -5.552088         0.001372         3.682760
 H         1.778432        -0.307388         1.110234
 H         1.800311        -1.404356        -0.289003
 H         2.043707         0.398593        -0.519264
 H        -3.295875        -0.440126        -0.667516
 H        -2.510685         1.640378        -1.549802
 H        -3.119060        -0.807530         1.554640
 H        -2.969441         1.002861         1.996233
 H        -5.318733         0.963425         0.598986
 H        -5.355178        -0.702833         1.086340
 H        -5.102110         1.924035         3.028390
