19
Iteration:  1399charge 0 multiplicity 1
 C         1.434125         0.030923         0.099117
 C        -0.062897        -0.049549         0.032710
 C        -1.302332        -0.084047        -0.183916
 C        -2.693538         0.191414        -0.200355
 O        -2.895264         1.446136        -0.705247
 C        -3.194936        -0.082437         1.256725
 C        -4.809683         0.028016         1.500818
 C        -5.139709         0.140107         2.999475
 O        -5.745642         1.013265         3.547489
 H         1.778994        -0.963312         0.306591
 H         1.790438         0.379735        -0.979533
 H         1.845007         0.665863         0.879006
 H        -3.412401        -0.402903        -0.914325
 H        -2.421488         2.055666        -0.044559
 H        -2.984433        -1.106239         1.500144
 H        -2.804806         0.571808         2.040057
 H        -5.413401         0.915310         1.199746
 H        -5.213936        -0.956571         0.979629
 H        -4.704482        -0.824845         3.672830
