19
Iteration:  4948charge 0 multiplicity 1
 C         1.318360         0.282187         0.473733
 C        -0.161439         0.437451         0.170962
 C        -1.394139         0.220626         0.212279
 C        -2.793328        -0.012416         0.354544
 O        -3.465794        -0.483959        -0.938678
 C        -3.466081         1.272421         0.767377
 C        -4.903690         1.137756         1.387554
 C        -5.156464         0.532099         2.743494
 O        -4.420047        -0.183833         3.389707
 H         1.992075         0.039164        -0.379894
 H         1.713745         1.205432         0.896532
 H         1.474273        -0.572698         1.103765
 H        -3.035913        -0.704656         1.210058
 H        -2.916395        -1.132865        -1.421687
 H        -2.706015         1.898275         1.241801
 H        -3.561332         1.751890        -0.232155
 H        -5.495789         2.079435         1.379918
 H        -5.485304         0.517138         0.713843
 H        -6.117631         0.854220         3.123634
