19
Iteration:  2923charge 0 multiplicity 1
 C         1.368189        -0.032204         0.143012
 C        -0.135384         0.156381        -0.111521
 C        -1.340339         0.266611        -0.163770
 C        -2.753527         0.053345         0.049288
 O        -3.576896         0.787588        -0.857647
 C        -3.087202         0.140557         1.625112
 C        -4.508249        -0.561578         1.942318
 C        -5.354919         0.444495         2.775558
 O        -4.997746         1.566344         3.050620
 H         1.495623         0.063504         1.267319
 H         1.656713        -1.098628        -0.128915
 H         2.117191         0.597359        -0.411373
 H        -2.892800        -1.054639        -0.106820
 H        -2.941717         1.163004        -1.469017
 H        -2.325168        -0.264067         2.293042
 H        -3.189065         1.185584         1.921441
 H        -5.064921        -0.671528         1.061869
 H        -4.581397        -1.547690         2.482957
 H        -6.360834         0.142207         3.033483
