19
Iteration:  1738
 C         1.186050         0.169508         0.765239
 C        -0.124429         0.052974         0.125182
 C        -1.312584         0.001958        -0.263189
 C        -2.827445        -0.116356        -0.196199
 O        -3.434126         0.925579        -1.017827
 C        -3.224093         0.122388         1.214318
 C        -4.639845         0.580384         1.310494
 C        -5.241111         0.729551         2.710551
 O        -4.799792         0.272805         3.737394
 H         1.871645        -0.494893         0.298092
 H         1.504241         1.222422         0.630004
 H         1.133577         0.068767         1.838326
 H        -3.229416        -1.041305        -0.534332
 H        -2.664713         1.398010        -1.381470
 H        -2.974565        -0.793260         1.744179
 H        -2.638828         0.829640         1.793517
 H        -4.484623         1.509531         0.772556
 H        -5.372005         0.135982         0.693041
 H        -6.207035         1.239079         2.804649
