19
Iteration:  2700
 C         1.342121        -0.283126         0.092545
 C         0.014444         0.260941        -0.202812
 C        -1.167639         0.343320        -0.003673
 C        -2.600534         0.131081         0.159387
 O        -3.495435         0.641342        -0.952215
 C        -3.228502         0.494496         1.532919
 C        -4.587101        -0.216210         1.603524
 C        -5.309365         0.227952         2.874701
 O        -5.247031         1.312681         3.421904
 H         2.178467         0.222416         0.511082
 H         1.255829        -1.239399         0.626663
 H         1.753284        -0.527667        -0.902766
 H        -2.786247        -0.917774        -0.094286
 H        -3.118519         1.417224        -1.422071
 H        -2.520701         0.300405         2.319712
 H        -3.638235         1.483600         1.367562
 H        -5.134710         0.129624         0.671273
 H        -4.668012        -1.337048         1.605878
 H        -6.018794        -0.517359         3.292310
