19
Iteration:  2595
 C         1.271682         0.528892         0.074566
 C        -0.147506         0.080992        -0.065359
 C        -1.298118        -0.262334        -0.072689
 C        -2.781376        -0.262277         0.005962
 O        -3.175313         0.900110        -0.758221
 C        -3.342259        -0.208521         1.459286
 C        -4.917606        -0.343521         1.630935
 C        -5.359343         0.856244         2.559006
 O        -4.748177         1.297569         3.532187
 H         1.359639         1.660088         0.365594
 H         1.730527         0.120939         0.998921
 H         2.015683         0.357083        -0.776800
 H        -3.337692        -1.078392        -0.488149
 H        -2.465872         1.556633        -0.641464
 H        -2.649467        -0.942998         1.944727
 H        -2.999013         0.481749         2.202051
 H        -5.382605        -0.061037         0.735397
 H        -5.191420        -1.282489         2.014773
 H        -6.409018         1.114824         2.330005
