19
Iteration:  2900
 C         1.298566         0.044544         0.089591
 C        -0.122094        -0.014776        -0.052711
 C        -1.333424         0.094013        -0.019575
 C        -2.747524        -0.021927         0.052532
 O        -3.450020         0.919828        -0.843518
 C        -3.214904         0.320335         1.453811
 C        -4.467103        -0.458498         1.903434
 C        -5.291813         0.336301         2.885845
 O        -5.083937         1.530713         3.048780
 H         1.672600         0.372325         1.095433
 H         1.800164        -0.962014        -0.238970
 H         1.718332         0.677153        -0.761268
 H        -2.987489        -1.125153        -0.157405
 H        -2.889648         0.845869        -1.650081
 H        -2.469960         0.013469         2.210794
 H        -3.320276         1.395282         1.627259
 H        -5.154931        -0.662374         1.131065
 H        -4.243904        -1.422790         2.395057
 H        -6.060296        -0.152866         3.466305
