19
Iteration:   912
 C         1.656443        -0.353460        -0.388761
 C         0.115758        -0.202649        -0.166799
 C        -1.043910         0.138219         0.086902
 C        -2.565114         0.249988         0.114354
 O        -3.092242         1.445118        -0.641597
 C        -3.173525         0.201277         1.577945
 C        -4.736997         0.505989         1.569487
 C        -5.214705         0.660608         2.986641
 O        -6.254635         0.119982         3.373161
 H         2.131589        -0.512937         0.536280
 H         1.890733        -1.168937        -1.133291
 H         1.962444         0.595875        -0.813072
 H        -2.840591        -0.767814        -0.390866
 H        -2.323244         1.752306        -1.151334
 H        -3.089817        -0.830449         2.037282
 H        -2.793853         0.843766         2.346751
 H        -5.034930         1.390771         0.913290
 H        -5.368882        -0.231824         1.162770
 H        -4.483145         1.238847         3.609369
