19
Iteration:  2167charge 0 multiplicity 1
 C         1.447831         0.305577        -0.352345
 C        -0.026391         0.207113        -0.019692
 C        -1.164764        -0.112447         0.295152
 C        -2.644292        -0.157333         0.307419
 O        -3.043219         1.076600        -0.316563
 C        -3.383505        -0.422210         1.636531
 C        -4.986328        -0.350748         1.476701
 C        -5.596381         0.658938         2.414244
 O        -4.956304         1.473949         3.044763
 H         1.308607         0.664461        -1.434884
 H         1.885858         1.035373         0.247174
 H         1.961626        -0.693678        -0.225353
 H        -3.067529        -0.925177        -0.443974
 H        -2.992765         1.922603         0.214512
 H        -3.300830        -1.515317         1.817889
 H        -2.844283        -0.123150         2.574049
 H        -5.492225         0.026123         0.575085
 H        -5.516309        -1.297576         1.562005
 H        -6.694322         0.336629         2.543352
