19
Iteration:  2156
 C         1.371704         0.328833        -0.369527
 C        -0.002846         0.142202        -0.056339
 C        -1.148616        -0.195164         0.284855
 C        -2.611229        -0.118766         0.321711
 O        -3.051145         1.083894        -0.299575
 C        -3.416536        -0.390447         1.610932
 C        -4.931220        -0.328701         1.452996
 C        -5.558657         0.616012         2.413810
 O        -5.051846         1.475231         3.109142
 H         1.606381         0.654584        -1.452032
 H         1.816598         1.080263         0.223235
 H         1.990556        -0.607659        -0.250169
 H        -2.903940        -1.005201        -0.328364
 H        -2.803392         1.659669         0.438017
 H        -3.086784        -1.408153         1.913453
 H        -3.226521         0.417346         2.356954
 H        -5.108646         0.041842         0.440826
 H        -5.374013        -1.309300         1.553812
 H        -6.692425         0.663552         2.429047
