19
Iteration:  4945
 C         1.312130         0.300493         0.510645
 C        -0.150784         0.416150         0.114705
 C        -1.359931         0.224361         0.189948
 C        -2.801951        -0.025736         0.339951
 O        -3.458194        -0.479764        -0.915286
 C        -3.482250         1.276475         0.783620
 C        -4.922528         1.116194         1.401084
 C        -5.132434         0.546230         2.722594
 O        -4.419346        -0.166995         3.387315
 H         1.900895        -0.002158        -0.363522
 H         1.746265         1.189038         0.928711
 H         1.389515        -0.652328         1.172842
 H        -3.143633        -0.679535         1.156176
 H        -2.915100        -1.027844        -1.477462
 H        -2.724597         1.879935         1.304519
 H        -3.602156         1.807156        -0.130257
 H        -5.484072         2.027807         1.499493
 H        -5.483682         0.437431         0.686638
 H        -6.180319         0.812119         3.090108
