19
Iteration:    77
 C         1.441405         0.006352        -0.017941
 C         0.021170         0.046554         0.056592
 C        -1.164564        -0.107809        -0.023019
 C        -2.608653         0.064532        -0.107353
 O        -2.977520         1.466860        -0.563672
 C        -3.258680        -0.275075         1.250978
 C        -4.799549         0.223398         1.430092
 C        -5.033485         0.804303         2.850808
 O        -5.904974         0.435621         3.596273
 H         1.995044         0.413188         0.812477
 H         1.814140        -0.973059        -0.245338
 H         1.707617         0.598073        -0.892351
 H        -3.035868        -0.556786        -0.818733
 H        -3.871381         1.258748        -0.952084
 H        -3.199798        -1.319236         1.394929
 H        -2.646222         0.415998         1.900584
 H        -4.846643         1.112408         0.865908
 H        -5.572983        -0.453291         1.135322
 H        -4.418209         1.674070         3.184832
