19
Iteration:  4774
 C         1.170682         0.363319         0.272694
 C        -0.260956         0.013462         0.373862
 C        -1.459041        -0.110662         0.491992
 C        -2.944962         0.005198         0.195802
 O        -3.056884         0.038915        -1.213345
 C        -3.698738         1.211707         0.736528
 C        -4.981323         0.906260         1.392129
 C        -5.044598         0.190513         2.739119
 O        -4.315671         0.320025         3.709105
 H         1.682840        -0.529625        -0.058402
 H         1.515877         1.078593        -0.514486
 H         1.702659         0.629023         1.127311
 H        -3.291684        -0.863570         0.699018
 H        -2.404742        -0.580430        -1.661510
 H        -2.864583         1.718954         1.185714
 H        -3.934665         1.854168        -0.099092
 H        -5.311516         1.949736         1.598716
 H        -5.589246         0.303415         0.802317
 H        -5.900537        -0.546952         2.747736
