19
Iteration:  4750
 C         1.189058         0.262990         0.259334
 C        -0.224271         0.172962         0.534712
 C        -1.425832        -0.065029         0.456855
 C        -2.856321        -0.076734         0.228332
 O        -3.191303         0.114018        -1.280212
 C        -3.588611         1.210324         0.838573
 C        -5.066814         0.787587         1.310232
 C        -5.083694         0.234342         2.756388
 O        -4.258725         0.331247         3.654767
 H         1.541144        -0.739920        -0.007167
 H         1.452798         0.767680        -0.658780
 H         1.960641         0.673773         0.901662
 H        -3.217824        -1.040563         0.484243
 H        -2.895819        -0.606808        -1.843687
 H        -2.975334         1.969078         1.505441
 H        -3.615558         1.733427        -0.124989
 H        -5.669671         1.696619         1.534456
 H        -5.533343        -0.045356         0.800328
 H        -6.148641        -0.129113         2.987449
