19
Iteration:  3736
 C         1.259417         0.418728         0.509976
 C        -0.080954        -0.061829         0.116963
 C        -1.279141        -0.006015        -0.061726
 C        -2.704297        -0.146326         0.120253
 O        -3.483238        -0.145215        -1.149927
 C        -3.370620         0.999881         1.086071
 C        -4.948513         0.799866         1.335728
 C        -5.330409         0.557782         2.832991
 O        -4.457061         0.538871         3.704249
 H         1.551551         1.010436        -0.374747
 H         0.961822         1.042191         1.296970
 H         1.954499        -0.377967         0.812434
 H        -3.071917        -1.071201         0.634050
 H        -2.908911        -0.241646        -1.924413
 H        -2.800461         0.840566         2.069949
 H        -3.084888         2.023569         0.727520
 H        -5.460998         1.590040         0.818813
 H        -5.321089        -0.178238         0.877549
 H        -6.312066         0.035514         3.080089
