19
Iteration:  2696
 C         1.338544        -0.264040         0.081971
 C         0.023616         0.234679        -0.185712
 C        -1.168785         0.343537        -0.005936
 C        -2.615276         0.106809         0.150020
 O        -3.522750         0.650884        -0.926474
 C        -3.223381         0.485532         1.502123
 C        -4.568358        -0.252411         1.595091
 C        -5.318726         0.258745         2.852227
 O        -5.231662         1.320441         3.433477
 H         2.197166         0.338644         0.586441
 H         1.222011        -1.219845         0.758900
 H         1.813912        -0.476696        -0.894475
 H        -2.769973        -0.913482        -0.216894
 H        -3.171774         1.420287        -1.405862
 H        -2.578647         0.246472         2.348018
 H        -3.385611         1.610461         1.463929
 H        -5.144434         0.101745         0.798373
 H        -4.656711        -1.282429         1.603036
 H        -6.084113        -0.542374         3.137673
