19
Iteration:  2662charge 0 multiplicity 1
 C         1.404745        -0.019033         0.117054
 C        -0.046319         0.031306         0.070586
 C        -1.245305         0.227650        -0.231320
 C        -2.691185         0.024572        -0.000138
 O        -3.580531         0.760341        -0.906722
 C        -3.083201         0.275170         1.531267
 C        -4.552740        -0.264742         1.695391
 C        -5.460960         0.475489         2.666388
 O        -5.078694         1.282628         3.491779
 H         1.721862         1.004306         0.498982
 H         1.697127        -0.899296         0.764212
 H         1.742176        -0.335497        -0.902000
 H        -2.858057        -1.035965        -0.268531
 H        -3.253208         1.694303        -0.977293
 H        -2.482528        -0.154642         2.362151
 H        -2.847583         1.330779         1.686282
 H        -5.052506        -0.179197         0.775828
 H        -4.587702        -1.299684         1.897621
 H        -6.449477        -0.043905         2.777769
