19
Iteration:  4247charge 0 multiplicity 1
 C         1.323803         0.351113        -0.578808
 C        -0.027039         0.300821        -0.071074
 C        -1.136110         0.140562         0.384757
 C        -2.565147         0.142036         0.929060
 O        -3.382408        -0.445278        -0.024554
 C        -3.179228         1.371884         1.461882
 C        -4.715239         1.328579         1.375383
 C        -5.561953         0.240426         2.013064
 O        -5.123067        -0.294150         3.028740
 H         2.107826         0.647880         0.148966
 H         1.527618        -0.671862        -0.786163
 H         1.360638         1.047273        -1.472323
 H        -2.417560        -0.568067         1.789242
 H        -2.928132        -0.770781        -0.825868
 H        -2.820906         1.458150         2.500046
 H        -2.791071         2.188228         0.862933
 H        -5.034615         2.226971         1.825252
 H        -4.979218         1.468285         0.286672
 H        -6.619225        -0.016730         1.624768
