19
Iteration:  2216charge 0 multiplicity 1
 C         1.362713         0.278250        -0.166953
 C        -0.065565         0.114845         0.256589
 C        -1.306384         0.097768         0.373923
 C        -2.747732        -0.057822         0.122993
 O        -3.467116         1.107820        -0.283662
 C        -3.343190        -0.638879         1.400444
 C        -4.814509        -0.432971         1.502734
 C        -5.370895         0.668397         2.422743
 O        -4.643208         1.576561         2.843624
 H         1.356530         0.740586        -1.116832
 H         1.892129         0.858597         0.665287
 H         1.749740        -0.721719        -0.173085
 H        -2.829955        -0.849745        -0.598748
 H        -3.037776         1.765740         0.268917
 H        -3.002548        -1.661713         1.623861
 H        -2.817794        -0.198936         2.259890
 H        -5.418381        -0.514202         0.563419
 H        -5.236203        -1.341603         1.991819
 H        -6.462632         0.412232         2.775243
