19
Iteration:  4803charge 0 multiplicity 1
 C         1.064293         0.350137         0.339334
 C        -0.311755        -0.022266         0.262742
 C        -1.491078         0.078672         0.425198
 C        -2.914902        -0.008995         0.134326
 O        -3.007526        -0.208726        -1.294880
 C        -3.624321         1.294992         0.879192
 C        -5.047901         1.057818         1.478640
 C        -5.042517         0.099161         2.738117
 O        -4.284426         0.344095         3.646311
 H         1.876583        -0.385990         0.054158
 H         1.276424         1.267157        -0.149420
 H         1.493122         0.441624         1.451881
 H        -3.163170        -1.010888         0.690213
 H        -2.187124        -0.447337        -1.729932
 H        -2.795945         1.509258         1.726231
 H        -3.627662         2.269643         0.339131
 H        -5.472063         2.039920         1.766120
 H        -5.625312         0.522808         0.631236
 H        -5.671445        -0.858091         2.678262
