19
Iteration:  2246charge 0 multiplicity 1
 C         1.333612         0.264721         0.149368
 C        -0.166781         0.158890         0.205006
 C        -1.408494         0.150760        -0.002645
 C        -2.920140        -0.005390         0.120755
 O        -3.538178         1.172783        -0.212190
 C        -3.270138        -0.697427         1.458296
 C        -4.763202        -0.677728         1.640155
 C        -5.245664         0.751544         2.337250
 O        -4.436306         1.567429         2.717991
 H         1.828992         0.777292        -0.740120
 H         1.799193         0.709124         1.080280
 H         1.656179        -0.789088         0.031621
 H        -3.173636        -0.802054        -0.655179
 H        -3.497908         1.786369         0.548536
 H        -2.813050        -1.727847         1.481120
 H        -2.896980        -0.139354         2.387673
 H        -5.462066        -0.523208         0.765149
 H        -5.239734        -1.504702         2.097670
 H        -6.314165         0.820031         2.173834
