19
Iteration:  1777charge 0 multiplicity 1
 C         1.145413         0.148237         0.796100
 C        -0.302422         0.179493         0.304940
 C        -1.399613        -0.052458        -0.123596
 C        -2.828281        -0.057654        -0.276507
 O        -3.239824         0.830205        -1.337729
 C        -3.367230         0.138519         1.165639
 C        -4.747454         0.719253         1.300474
 C        -5.217556         0.614566         2.833531
 O        -4.529520         0.258292         3.762244
 H         1.843365        -0.514479         0.208557
 H         1.721231         1.137205         0.764736
 H         1.242572        -0.261340         1.826644
 H        -3.184891        -1.160675        -0.404393
 H        -2.957970         1.686471        -0.981340
 H        -3.303896        -0.915384         1.558095
 H        -2.742520         0.916332         1.642457
 H        -4.769648         1.846102         1.343730
 H        -5.579665         0.380380         0.578709
 H        -6.345200         0.921592         2.822653
