19
Iteration:  4273charge 0 multiplicity 1
 C         1.239347         0.416847        -0.599465
 C        -0.156853         0.043303        -0.150056
 C        -1.127861         0.210896         0.623873
 C        -2.591689         0.077482         1.051512
 O        -3.362108        -0.357386        -0.075248
 C        -3.209109         1.479666         1.308800
 C        -4.710418         1.456214         1.389617
 C        -5.312428         0.250267         2.017266
 O        -5.119366        -0.444978         2.999053
 H         1.608057         0.649313         0.407892
 H         1.935789        -0.497446        -0.792608
 H         1.269042         1.279777        -1.261697
 H        -2.569417        -0.686481         1.928372
 H        -3.151325        -1.091758        -0.701559
 H        -2.751087         1.958480         2.195176
 H        -2.783940         1.948700         0.392453
 H        -5.070345         2.476818         1.795936
 H        -5.120503         1.379589         0.340214
 H        -6.245386        -0.114727         1.408542
