19
Iteration:  3398charge 0 multiplicity 1
 C         1.325498        -0.179137         0.016042
 C        -0.125970         0.089741        -0.299333
 C        -1.343057         0.228398        -0.115321
 C        -2.665691         0.197089         0.075048
 O        -3.382424         1.214244        -0.480005
 C        -3.099426         0.050308         1.678107
 C        -4.481533        -0.573214         1.924484
 C        -5.363086         0.255235         2.749990
 O        -5.284099         1.468103         2.854984
 H         1.646410        -1.189484        -0.299781
 H         1.980684         0.548779        -0.344986
 H         1.517886        -0.281696         1.081999
 H        -3.031427        -0.799254        -0.483739
 H        -2.716098         1.827368        -0.840446
 H        -2.318688        -0.506844         2.196256
 H        -2.991219         1.088752         1.944351
 H        -5.072123        -0.672100         0.968475
 H        -4.241710        -1.652908         2.178517
 H        -6.094737        -0.303813         3.406672
