19
Iteration:  2344charge 0 multiplicity 1
 C         0.895320         0.382992         0.713687
 C        -0.453627         0.120385         0.186496
 C        -1.585381         0.008578        -0.204626
 C        -3.009040        -0.047068        -0.275710
 O        -3.643698         1.178244        -0.143766
 C        -3.098295        -0.807886         1.142397
 C        -4.496466        -0.526278         1.895755
 C        -4.933231         0.822302         2.130391
 O        -4.188965         1.546229         2.796470
 H         1.504014         1.191187         0.259896
 H         0.931064         0.507446         1.781857
 H         1.413174        -0.528373         0.402986
 H        -3.497800        -0.730928        -0.996982
 H        -3.067514         1.808176         0.333271
 H        -2.946493        -1.902800         1.103847
 H        -2.335292        -0.257669         1.697953
 H        -5.199627        -1.202797         1.423831
 H        -4.303898        -1.104625         2.806524
 H        -6.003179         0.985563         1.836260
