19
Iteration:  2152charge 0 multiplicity 1
 C         1.345056         0.348221        -0.388091
 C        -0.006855         0.093117        -0.054952
 C        -1.131189        -0.201804         0.285959
 C        -2.618329        -0.149953         0.309431
 O        -3.054813         1.092994        -0.282432
 C        -3.409760        -0.386515         1.608324
 C        -4.876497        -0.320303         1.425194
 C        -5.589776         0.632085         2.442189
 O        -5.072183         1.466807         3.123435
 H         1.710954         0.588487        -1.379044
 H         1.872447         1.125752         0.262285
 H         1.948894        -0.561428        -0.261267
 H        -2.869285        -0.922537        -0.475954
 H        -2.815544         1.837325         0.335816
 H        -2.957655        -1.267300         2.120309
 H        -3.307020         0.478370         2.291328
 H        -5.001887         0.056110         0.387376
 H        -5.408327        -1.351329         1.598236
 H        -6.693513         0.658923         2.308761
