19
Iteration:  4241charge 0 multiplicity 1
 C         1.339659         0.325871        -0.616678
 C        -0.015288         0.378063         0.018745
 C        -1.193506         0.146325         0.339187
 C        -2.531679         0.141400         0.847943
 O        -3.364422        -0.499734        -0.032981
 C        -3.191362         1.340898         1.519595
 C        -4.708825         1.309054         1.379761
 C        -5.538259         0.255574         2.024781
 O        -5.131972        -0.266676         3.028239
 H         2.105251         0.681936         0.078783
 H         1.564560        -0.783141        -0.805928
 H         1.504286         0.992542        -1.443661
 H        -2.621877        -0.476614         1.778614
 H        -3.058620        -0.801214        -0.872006
 H        -2.970757         1.359783         2.594969
 H        -2.906542         2.330383         1.068670
 H        -5.027215         2.348193         1.800589
 H        -5.046681         1.347201         0.331339
 H        -6.539224         0.179230         1.574942
