19
Iteration:  1495
 C         1.550288        -0.290544        -0.285692
 C         0.105717         0.106299        -0.108180
 C        -1.042365         0.214285         0.122409
 C        -2.510278         0.223394         0.210052
 O        -3.085863         1.194755        -0.717607
 C        -3.191351         0.447408         1.525346
 C        -4.738188         0.306759         1.462797
 C        -5.540422        -0.046638         2.735937
 O        -5.802714         0.736523         3.603728
 H         1.593626        -1.357983        -0.192032
 H         2.010154         0.106866        -1.175515
 H         2.082140        -0.011128         0.605064
 H        -2.647957        -0.789778        -0.143672
 H        -3.122045         0.796041        -1.614081
 H        -2.879882        -0.526085         1.955709
 H        -2.760926         1.303166         2.047237
 H        -5.253040         1.196089         1.095658
 H        -5.001995        -0.523904         0.827163
 H        -6.423890        -0.848117         2.653688
