19
Iteration:  4704
 C         1.238661         0.125571         0.409918
 C        -0.159543         0.147002         0.221828
 C        -1.346489         0.375166         0.191318
 C        -2.802447         0.029976         0.266795
 O        -3.327467         0.006284        -1.209629
 C        -3.615350         1.010871         1.083616
 C        -5.051274         0.685553         1.297177
 C        -5.213773         0.405121         2.809099
 O        -4.231005         0.281291         3.514214
 H         1.643265        -0.882012         0.660737
 H         1.887330         0.425746        -0.356847
 H         1.534337         0.835768         1.257880
 H        -2.957819        -0.989120         0.483466
 H        -2.704980        -0.616437        -1.681218
 H        -3.267632         1.349017         2.118324
 H        -3.631958         2.033192         0.619726
 H        -5.706497         1.534924         0.999855
 H        -5.149736        -0.211400         0.615055
 H        -6.292868         0.289598         3.219970
