19
Iteration:   198charge 0 multiplicity 1
 C         1.500879        -0.066122         0.043936
 C        -0.015923        -0.001167        -0.047621
 C        -1.260128        -0.019373        -0.119454
 C        -2.786189         0.196880        -0.150861
 O        -3.086664         1.508428        -0.641068
 C        -3.155833        -0.187940         1.326978
 C        -4.601588        -0.128478         1.625812
 C        -4.934430         0.629373         2.900890
 O        -6.036385         0.681061         3.443843
 H         1.870519         0.359630         1.000951
 H         1.835021        -1.041125         0.083700
 H         2.075304         0.475184        -0.725049
 H        -3.221811        -0.598924        -0.865259
 H        -2.994612         2.249096        -0.001405
 H        -2.864699        -1.138388         1.249191
 H        -2.547424         0.534045         2.026058
 H        -5.070423         0.541788         0.857643
 H        -5.067919        -1.132324         1.544585
 H        -4.047030         1.405856         3.200677
