19
Iteration:  2946
 C         1.344186        -0.089869         0.142480
 C        -0.037490         0.345507        -0.078176
 C        -1.287802         0.319780        -0.124762
 C        -2.710452        -0.056925         0.003227
 O        -3.729214         0.673295        -0.701275
 C        -3.075506        -0.034260         1.488922
 C        -4.477812        -0.395587         1.892182
 C        -5.353336         0.536870         2.630918
 O        -5.001439         1.585013         3.117250
 H         1.349930        -0.062401         1.269334
 H         1.548698        -1.108303        -0.207617
 H         2.109606         0.598904        -0.279727
 H        -2.814148        -1.133289        -0.274308
 H        -3.345189         1.570719        -0.859702
 H        -2.487772        -0.728249         2.095898
 H        -2.706255         0.937205         1.802357
 H        -5.006271        -0.907555         1.137245
 H        -4.398784        -1.226397         2.668539
 H        -6.400504         0.210664         2.689029
