19
Iteration:  2135
 C         1.386756         0.351855        -0.379486
 C        -0.021099        -0.080004        -0.072933
 C        -1.155004        -0.219639         0.292101
 C        -2.604421        -0.179740         0.225041
 O        -3.107406         1.144810        -0.254047
 C        -3.216896        -0.259108         1.660731
 C        -4.843168        -0.291796         1.456439
 C        -5.625034         0.664788         2.334738
 O        -5.189324         1.392717         3.203169
 H         1.258404         0.696060        -1.446142
 H         1.564433         1.240587         0.161231
 H         2.195797        -0.415823        -0.219781
 H        -3.062776        -0.964731        -0.395462
 H        -2.422344         1.679146         0.203330
 H        -2.968615        -1.084464         2.355069
 H        -2.873367         0.736245         1.959473
 H        -5.080858         0.146589         0.468762
 H        -5.174062        -1.280522         1.358400
 H        -6.747600         0.582358         2.354496
