19
Iteration:  3970charge 0 multiplicity 1
 C         1.292627         0.368513         0.397628
 C        -0.106345         0.277184         0.090589
 C        -1.363235         0.182086         0.152252
 C        -2.796807         0.045861         0.310290
 O        -3.525129        -0.626865        -0.553920
 C        -3.397068         1.389400         0.789121
 C        -4.870541         1.301816         1.262921
 C        -5.217327         0.367985         2.584380
 O        -4.448676        -0.185325         3.367257
 H         1.609219         1.396809         0.414595
 H         1.463896         0.036499         1.459124
 H         1.943257        -0.118132        -0.291565
 H        -2.874352        -0.574313         1.249128
 H        -2.925345        -0.665122        -1.333563
 H        -2.685865         1.707411         1.539434
 H        -3.278415         2.291439         0.135931
 H        -5.204599         2.285461         1.632415
 H        -5.625822         0.841516         0.476451
 H        -6.332778         0.278484         2.832086
