19
Iteration:  2979
 C         1.248539         0.074310         0.041699
 C        -0.124905         0.202618         0.089190
 C        -1.320425         0.280073        -0.211720
 C        -2.678852        -0.114257         0.033617
 O        -3.757491         0.703259        -0.613203
 C        -2.917055        -0.251168         1.621988
 C        -4.440788        -0.420844         1.857945
 C        -5.348480         0.710278         2.419819
 O        -4.953961         1.608999         3.128816
 H         1.589990         0.057231         1.155237
 H         1.786281        -0.758296        -0.434417
 H         1.790108         1.040770        -0.071360
 H        -2.723725        -1.093244        -0.508308
 H        -4.149223         1.308111         0.056347
 H        -2.504493        -1.169993         2.070819
 H        -2.577150         0.647451         2.130524
 H        -4.882122        -0.599769         0.967984
 H        -4.628801        -1.251227         2.495809
 H        -6.349931         0.835871         1.815274
