19
Iteration:  3446charge 0 multiplicity 1
 C         1.400751        -0.056610        -0.339181
 C         0.065066         0.003165         0.151145
 C        -1.183594         0.079432         0.044161
 C        -2.642092         0.084175         0.109273
 O        -3.425384         1.117945        -0.472464
 C        -3.120451         0.011398         1.564217
 C        -4.602859        -0.388849         1.683645
 C        -5.366796         0.329984         2.731668
 O        -5.435523         1.509670         3.056964
 H         1.533854        -0.806413        -1.110858
 H         1.710494         0.971369        -0.707014
 H         2.080806        -0.399010         0.439251
 H        -3.178778        -0.815460        -0.255325
 H        -2.862451         1.851653        -0.780365
 H        -2.388053        -0.638289         2.000997
 H        -2.994903         1.005276         2.017710
 H        -5.111385        -0.344056         0.732930
 H        -4.567427        -1.482006         1.870097
 H        -6.071679        -0.347276         3.276088
