19
Iteration:   142
 C         1.396437         0.110134         0.186311
 C        -0.038433        -0.053484        -0.156011
 C        -1.258763        -0.203971        -0.347176
 C        -2.705875         0.070625        -0.222249
 O        -2.987515         1.501728        -0.339587
 C        -3.122981        -0.217476         1.293111
 C        -4.690620        -0.011232         1.572970
 C        -4.962944         0.729880         2.854728
 O        -5.995553         0.627636         3.518146
 H         1.503050         0.574180         1.159933
 H         1.930063        -0.847316         0.148759
 H         1.858527         0.731729        -0.582148
 H        -3.205751        -0.536240        -1.035018
 H        -2.923105         1.758812        -1.258551
 H        -2.707270        -1.152826         1.601861
 H        -2.655524         0.613787         1.983934
 H        -4.960423         0.812461         0.861052
 H        -5.405871        -0.787311         1.356505
 H        -4.140072         1.426442         2.912352
