19
Iteration:  4315charge 0 multiplicity 1
 C         1.123883         0.385853        -0.610983
 C        -0.030211         0.255392         0.347057
 C        -1.235419         0.031405         0.574902
 C        -2.680265         0.060978         0.928651
 O        -3.454481        -0.478930        -0.176189
 C        -3.224712         1.493277         1.285107
 C        -4.718289         1.580618         1.490675
 C        -5.251123         0.213550         1.906981
 O        -4.821078        -0.393143         2.862312
 H         2.114801         0.647405        -0.214215
 H         1.263645        -0.637527        -1.057207
 H         0.933082         1.172191        -1.387547
 H        -3.064241        -0.502918         1.812418
 H        -3.448419        -1.446015         0.070538
 H        -2.709546         1.812947         2.202698
 H        -3.025684         2.235272         0.501447
 H        -5.021061         2.208744         2.305668
 H        -5.304539         1.970001         0.589456
 H        -6.132586        -0.080863         1.315725
