19
Iteration:  4981
 C         1.293696         0.404787         0.158551
 C        -0.187127         0.260789         0.633641
 C        -1.406602         0.114328         0.363852
 C        -2.842973         0.031250         0.388165
 O        -3.313978        -0.525713        -0.913754
 C        -3.502969         1.309970         0.701221
 C        -4.933643         1.219798         1.397064
 C        -5.078203         0.564763         2.632894
 O        -4.458861        -0.254460         3.267689
 H         1.286946         0.599019        -0.937956
 H         1.806119         1.308293         0.534213
 H         1.943964        -0.397706         0.374577
 H        -2.871849        -0.627885         1.274827
 H        -3.478391        -1.453474        -0.777457
 H        -2.822928         1.782655         1.417485
 H        -3.572137         1.898794        -0.230462
 H        -5.326154         2.233395         1.535949
 H        -5.778152         0.825588         0.826830
 H        -5.915424         1.126777         3.187553
