19
Iteration:  3961charge 0 multiplicity 1
 C         1.290387         0.309030         0.468910
 C        -0.147275         0.320395         0.042854
 C        -1.324086         0.167856         0.118587
 C        -2.778245         0.166298         0.358479
 O        -3.484074        -0.736692        -0.618883
 C        -3.469885         1.425459         0.826734
 C        -4.939130         1.296125         1.348683
 C        -5.190959         0.343708         2.554411
 O        -4.387738        -0.145679         3.321665
 H         1.648700         1.357500         0.401863
 H         1.416411        -0.080833         1.483743
 H         1.930386        -0.293211        -0.217463
 H        -2.813050        -0.508833         1.282766
 H        -3.028662        -0.563217        -1.474798
 H        -2.943164         1.643084         1.747763
 H        -3.317722         2.163570         0.043237
 H        -5.254237         2.317631         1.638369
 H        -5.712979         0.991297         0.492878
 H        -6.257932         0.422806         2.903867
