19
Iteration:  2265
 C         1.205575         0.215150         0.344825
 C        -0.218722         0.257713         0.013583
 C        -1.418338         0.098239        -0.026905
 C        -2.874822        -0.036762         0.054155
 O        -3.614419         1.255378        -0.126223
 C        -3.250542        -0.693137         1.430870
 C        -4.784356        -0.654735         1.731634
 C        -5.118591         0.699245         2.227255
 O        -4.358091         1.550710         2.650725
 H         1.697795         0.923785        -0.388770
 H         1.314877         0.595732         1.319618
 H         1.597593        -0.835871         0.274651
 H        -3.212923        -0.717258        -0.765764
 H        -3.276335         1.766095         0.661412
 H        -2.867453        -1.702648         1.556091
 H        -2.584881        -0.161795         2.102252
 H        -5.248798        -1.154026         0.876061
 H        -5.093342        -1.369273         2.581790
 H        -6.244791         0.927023         2.238470
