19
Iteration:  2267
 C         1.173175         0.220516         0.361700
 C        -0.227727         0.251883        -0.002781
 C        -1.411416         0.090793        -0.028172
 C        -2.880384        -0.019782         0.052661
 O        -3.613901         1.249927        -0.112995
 C        -3.239015        -0.692249         1.415724
 C        -4.765467        -0.638373         1.741470
 C        -5.123091         0.699467         2.224770
 O        -4.346321         1.539896         2.639582
 H         1.762266         0.909736        -0.352740
 H         1.289852         0.613323         1.392039
 H         1.535148        -0.825388         0.246520
 H        -3.158043        -0.748122        -0.781118
 H        -3.253383         1.777303         0.654664
 H        -2.888724        -1.748500         1.527822
 H        -2.569911        -0.138870         2.137983
 H        -5.330851        -1.195593         0.931404
 H        -5.085679        -1.259937         2.598338
 H        -6.245619         0.829701         2.187475
