19
Iteration:  4564charge 0 multiplicity 1
 C         1.254286         0.417568         0.026105
 C        -0.213885         0.169571         0.204410
 C        -1.371446        -0.068077         0.365940
 C        -2.819910        -0.177178         0.444352
 O        -3.328130        -0.057489        -0.893885
 C        -3.313394         1.071286         1.223766
 C        -4.801305         1.070119         1.291948
 C        -5.287338         0.323989         2.508985
 O        -4.574480         0.119670         3.460233
 H         1.831651         0.063123         0.889464
 H         1.654934         0.140337        -0.928172
 H         1.341998         1.538451        -0.072911
 H        -3.139867        -1.168663         0.875579
 H        -3.123444         0.832712        -1.271566
 H        -2.717576         1.204163         2.132429
 H        -2.859109         1.879088         0.646125
 H        -5.251965         2.089554         1.165458
 H        -5.275590         0.518442         0.499031
 H        -6.378295        -0.084036         2.399383
