19
Iteration:  4963
 C         1.256347         0.321770         0.310962
 C        -0.136056         0.396758         0.442213
 C        -1.352171         0.215436         0.273232
 C        -2.802538        -0.058973         0.332878
 O        -3.423731        -0.487545        -0.915131
 C        -3.503249         1.302370         0.666889
 C        -4.855361         1.221221         1.312558
 C        -5.134574         0.561350         2.793232
 O        -4.449257        -0.258476         3.370847
 H         1.481425         0.265992        -0.777862
 H         1.733097         1.232051         0.788191
 H         1.605714        -0.539150         0.916607
 H        -3.010321        -0.929541         1.011536
 H        -3.105404        -1.388687        -0.966589
 H        -2.918644         1.900223         1.386087
 H        -3.645752         1.912842        -0.291149
 H        -5.208456         2.304284         1.359384
 H        -5.465158         0.583385         0.650152
 H        -6.156529         0.765526         3.222667
