19
Iteration:    28charge 0 multiplicity 1
 C         1.464723        -0.098192        -0.093642
 C         0.026055        -0.075200        -0.055510
 C        -1.155753         0.106300         0.139531
 C        -2.539394         0.196220        -0.053659
 O        -3.017848         1.325489        -0.767336
 C        -3.327402         0.009356         1.393975
 C        -4.822383         0.302950         1.469611
 C        -5.091433         0.707752         2.855863
 O        -5.932523         0.275730         3.637368
 H         1.838504         0.201692         0.923024
 H         1.868917        -1.131222        -0.288864
 H         1.954964         0.543824        -0.865279
 H        -2.828484        -0.742720        -0.711413
 H        -2.447648         1.468086        -1.522229
 H        -3.023760        -1.053845         1.670361
 H        -2.875196         0.909442         1.882159
 H        -4.961108         1.235497         0.817454
 H        -5.561802        -0.475729         1.113126
 H        -4.446097         1.386426         3.373703
