19
Iteration:  3201
 C         1.243693         0.409353        -0.527670
 C         0.021193         0.046150         0.193576
 C        -1.228289         0.023473         0.318280
 C        -2.668145        -0.065024         0.369763
 O        -3.504190         1.053911        -0.100274
 C        -3.310036        -0.623305         1.706120
 C        -4.782183        -0.599707         1.779074
 C        -5.343462         0.757956         2.085842
 O        -4.748882         1.628553         2.705023
 H         2.244494        -0.221457        -0.658393
 H         1.027653         0.605248        -1.594344
 H         1.653735         1.395484        -0.129502
 H        -2.872234        -0.787509        -0.362023
 H        -3.358181         1.792221         0.557467
 H        -2.902646        -1.664184         1.767231
 H        -3.016548        -0.111591         2.625374
 H        -5.346580        -0.861160         0.950242
 H        -5.135040        -1.356183         2.419642
 H        -6.437320         0.690323         1.824060
