19
Iteration:  1256charge 0 multiplicity 1
 C         1.429650        -0.165918         0.189572
 C        -0.022065         0.062311        -0.101888
 C        -1.198796         0.211805        -0.099474
 C        -2.634886         0.182976        -0.133992
 O        -3.087739         1.582200        -0.546960
 C        -3.294708        -0.198526         1.206447
 C        -4.854937        -0.108538         1.476505
 C        -5.028132         0.169485         2.894489
 O        -5.667953         1.036651         3.496747
 H         1.467168        -1.100543         0.777860
 H         2.125780        -0.334765        -0.681359
 H         1.795799         0.661351         0.816653
 H        -2.748853        -0.677235        -0.753261
 H        -3.339008         1.600613        -1.485936
 H        -3.133258        -1.323066         1.305951
 H        -2.649866         0.252958         1.941550
 H        -5.524011         0.577973         0.964160
 H        -5.310616        -1.008787         1.516610
 H        -4.368883        -0.596757         3.399134
