19
Iteration:   248
 C         1.500113        -0.249865        -0.085487
 C         0.097318         0.068246        -0.082073
 C        -1.131362         0.222581        -0.049344
 C        -2.634642         0.186662        -0.052182
 O        -3.341159         1.371357        -0.547022
 C        -3.070517        -0.094469         1.438850
 C        -4.632649        -0.006346         1.573518
 C        -5.022649         0.599933         2.844730
 O        -6.083539         0.621734         3.370628
 H         2.083193         0.135243         0.744273
 H         1.666010        -1.424185        -0.079052
 H         1.991759         0.188826        -0.964743
 H        -2.818867        -0.694923        -0.648776
 H        -2.850904         2.186012        -0.432527
 H        -2.644859        -1.229210         1.655027
 H        -2.684913         0.708726         2.094148
 H        -4.973431         0.894315         0.996773
 H        -5.194433        -0.885575         1.296857
 H        -4.094247         1.275778         3.279171
