19
Iteration:  3392
 C         1.239074        -0.200677         0.068325
 C        -0.121989         0.150475        -0.316492
 C        -1.274286         0.191647        -0.148086
 C        -2.694454         0.139468         0.128812
 O        -3.366452         1.240658        -0.495680
 C        -3.084528         0.068664         1.638737
 C        -4.460953        -0.572896         1.894139
 C        -5.384663         0.251795         2.748930
 O        -5.258510         1.459158         2.856366
 H         1.435671        -1.161662        -0.434639
 H         1.989986         0.544897        -0.441629
 H         1.367620        -0.149205         1.175727
 H        -3.112528        -0.700659        -0.301618
 H        -2.754783         1.905742        -0.840358
 H        -2.327269        -0.547558         2.161243
 H        -2.995693         1.107300         2.052406
 H        -4.955637        -0.941157         0.980216
 H        -4.232678        -1.551496         2.382502
 H        -6.055409        -0.248723         3.474934
