19
Iteration:  3723
 C         1.250442         0.443454         0.505542
 C        -0.086008         0.000508         0.018148
 C        -1.288833         0.013449        -0.040952
 C        -2.794424        -0.216180         0.158278
 O        -3.516207        -0.108805        -1.124380
 C        -3.341887         0.872280         1.191295
 C        -4.891280         0.777487         1.360147
 C        -5.274919         0.520022         2.744614
 O        -4.501824         0.599878         3.665248
 H         1.965183         0.943180        -0.145255
 H         1.295038         1.059615         1.316282
 H         1.868431        -0.412200         0.832704
 H        -2.734319        -1.252850         0.489268
 H        -2.796138        -0.163453        -1.786929
 H        -2.951887         0.801060         2.221003
 H        -3.059566         1.801138         0.731997
 H        -5.620463         1.532847         1.034618
 H        -5.187389        -0.149645         0.678209
 H        -6.366454         0.767371         2.897820
