19
Iteration:  3275
 C         1.268237        -0.035552        -0.013605
 C        -0.078486         0.256504        -0.209632
 C        -1.290578         0.168847        -0.220311
 C        -2.748499         0.009573         0.167340
 O        -3.487777         1.134123        -0.266721
 C        -3.033093        -0.243759         1.712311
 C        -4.522014        -0.561771         1.889715
 C        -5.466805         0.514956         2.336900
 O        -5.017714         1.508575         2.905054
 H         1.466377        -1.086396         0.202382
 H         1.930412         0.284383        -0.768878
 H         1.610294         0.545131         0.857736
 H        -3.293317        -0.824402        -0.451207
 H        -3.046485         1.971479        -0.041356
 H        -2.457285        -1.122188         1.963987
 H        -2.622242         0.599358         2.274073
 H        -4.922072        -1.284574         1.097801
 H        -4.585860        -1.272464         2.828194
 H        -6.551176         0.396700         2.029116
