19
Iteration:  2385
 C         1.030490         0.406296         0.646269
 C        -0.320319         0.276364         0.046413
 C        -1.490392         0.097269        -0.209528
 C        -2.931729        -0.118193        -0.107313
 O        -3.665332         1.057017        -0.432862
 C        -3.311728        -0.837589         1.383471
 C        -4.758831        -0.519928         1.805363
 C        -4.870630         0.892945         2.189810
 O        -4.133389         1.417329         3.001672
 H         1.415834         1.447068         0.382443
 H         0.830947         0.519253         1.706698
 H         1.766240        -0.390386         0.321193
 H        -3.214791        -0.716738        -0.961622
 H        -3.283805         1.825543        -0.003949
 H        -3.214195        -1.944851         1.211899
 H        -2.548737        -0.594569         2.098509
 H        -5.426829        -0.734953         0.978391
 H        -5.227832        -1.195161         2.657034
 H        -5.469829         1.611167         1.611325
