19
Iteration:   435
 C         1.445650        -0.324074        -0.481236
 C         0.043261        -0.198315        -0.159303
 C        -1.085191         0.061456         0.251065
 C        -2.526736         0.202466         0.269149
 O        -2.973017         1.241015        -0.776365
 C        -3.123443         0.540052         1.626355
 C        -4.679079         0.684641         1.553809
 C        -5.303041         0.676095         2.949674
 O        -6.116964        -0.140160         3.291077
 H         2.033391         0.179046         0.256267
 H         1.726255        -1.383015        -0.489190
 H         1.656147         0.168395        -1.425339
 H        -2.917523        -0.858154        -0.066630
 H        -2.445380         2.049365        -0.586286
 H        -2.853524        -0.345550         2.359287
 H        -2.746522         1.529279         1.910524
 H        -5.014438         1.668507         1.145582
 H        -5.150488        -0.120717         0.943979
 H        -5.139421         1.520499         3.773504
