19
Iteration:  4990
 C         1.249393         0.453995         0.078339
 C        -0.147553         0.183183         0.618146
 C        -1.363391         0.085398         0.447415
 C        -2.837436         0.009339         0.460608
 O        -3.275775        -0.547049        -0.902917
 C        -3.549820         1.352426         0.744342
 C        -4.919069         1.273641         1.317571
 C        -5.137274         0.586513         2.690185
 O        -4.419030        -0.271075         3.181587
 H         1.201574         0.714236        -0.988424
 H         1.523227         1.292755         0.684319
 H         1.964952        -0.380055         0.332313
 H        -3.207385        -0.786801         1.118564
 H        -3.517232        -1.409911        -0.591800
 H        -3.000979         1.941597         1.487568
 H        -3.589061         1.955060        -0.131042
 H        -5.165883         2.284659         1.553227
 H        -5.637578         0.781604         0.602407
 H        -5.974332         1.042291         3.365336
