19
Iteration:  2355charge 0 multiplicity 1
 C         0.935864         0.336862         0.691981
 C        -0.410099         0.204011         0.163343
 C        -1.537167         0.003424        -0.227537
 C        -3.010901        -0.117252        -0.209695
 O        -3.683940         1.180355        -0.225232
 C        -3.227086        -0.780167         1.183202
 C        -4.511536        -0.647304         1.834624
 C        -4.863169         0.838923         2.159796
 O        -4.180250         1.554680         2.861376
 H         1.254701         1.320911         0.299752
 H         0.788553         0.504400         1.746383
 H         1.738062        -0.362272         0.659069
 H        -3.291062        -0.488729        -1.202784
 H        -3.034504         1.840638         0.146515
 H        -2.934754        -1.844912         1.279326
 H        -2.509165        -0.305317         1.869417
 H        -5.379079        -1.029359         1.329382
 H        -4.450961        -0.937555         2.885712
 H        -5.861691         1.264431         1.812235
