19
Iteration:  4805
 C         1.089544         0.373617         0.362123
 C        -0.323711        -0.031067         0.257839
 C        -1.500615         0.087688         0.412986
 C        -2.916896         0.005235         0.132275
 O        -3.020456        -0.225155        -1.286043
 C        -3.607120         1.270997         0.885023
 C        -5.045635         1.052903         1.482475
 C        -5.037711         0.109681         2.719724
 O        -4.280262         0.340597         3.645515
 H         1.775172        -0.444382         0.037594
 H         1.329544         1.254122        -0.140070
 H         1.517577         0.401827         1.384130
 H        -3.218251        -0.947523         0.597053
 H        -2.183818        -0.403582        -1.692857
 H        -2.899342         1.503307         1.780766
 H        -3.641608         2.234081         0.366873
 H        -5.502597         2.052315         1.734727
 H        -5.630327         0.594654         0.663783
 H        -5.614086        -0.813199         2.659056
