19
Iteration:  3238
 C         1.329947         0.126428        -0.283570
 C        -0.107593         0.268746        -0.127784
 C        -1.266956         0.201981         0.147079
 C        -2.721730        -0.067131         0.274524
 O        -3.504525         1.044568        -0.099186
 C        -3.166673        -0.529927         1.692816
 C        -4.640637        -0.616477         1.773388
 C        -5.325563         0.636828         2.241507
 O        -4.962563         1.651638         2.807619
 H         1.636696        -0.833464        -0.003833
 H         1.602558         0.434411        -1.323510
 H         1.734114         0.832266         0.411553
 H        -2.851448        -0.966986        -0.384024
 H        -2.789243         1.713062        -0.218147
 H        -2.690245        -1.497075         1.975265
 H        -2.921248         0.224360         2.491287
 H        -5.094494        -0.860442         0.781321
 H        -4.944429        -1.302986         2.530239
 H        -6.429955         0.667315         1.960704
