19
Iteration:  4717
 C         1.259575         0.174432         0.355502
 C        -0.241388         0.132878         0.362511
 C        -1.428558         0.283931         0.294203
 C        -2.843546         0.040711         0.184431
 O        -3.234940         0.020055        -1.241541
 C        -3.575128         1.088247         1.090004
 C        -5.102905         0.705545         1.303468
 C        -5.163339         0.358487         2.755580
 O        -4.193080         0.320669         3.501275
 H         1.561589        -0.890896         0.427986
 H         1.507315         0.549996        -0.630695
 H         1.691127         0.716579         1.219046
 H        -3.007081        -0.866889         0.740826
 H        -2.845502        -0.788171        -1.564257
 H        -2.964000         0.810366         2.011464
 H        -3.351025         2.090319         0.689699
 H        -5.929632         1.382732         0.950086
 H        -5.454929        -0.217320         0.805820
 H        -6.196418         0.079672         3.213044
