19
Iteration:   379charge 0 multiplicity 1
 C         1.431205        -0.148975        -0.496511
 C         0.028301        -0.110016        -0.109419
 C        -1.167752        -0.208768         0.247153
 C        -2.563796         0.228773         0.109566
 O        -2.743875         1.374465        -0.690444
 C        -3.146786         0.473851         1.594194
 C        -4.651934         0.473567         1.601460
 C        -5.291595         0.636653         2.965789
 O        -6.270234         0.059138         3.373473
 H         2.039337         0.391674         0.149603
 H         1.841946        -1.212697        -0.612102
 H         1.515223         0.269615        -1.470072
 H        -3.122036        -0.761096        -0.152496
 H        -2.583479         0.995749        -1.561649
 H        -2.665487        -0.423576         2.162523
 H        -2.536203         1.342827         2.001624
 H        -5.100642         1.314742         1.029816
 H        -5.125185        -0.426661         1.082066
 H        -4.725227         1.177133         3.679815
