19
Iteration:   202
 C         1.485377        -0.075887         0.033350
 C        -0.005591        -0.011767        -0.035467
 C        -1.257004         0.009219        -0.111180
 C        -2.709541         0.203654        -0.186543
 O        -3.115903         1.487969        -0.617524
 C        -3.149738        -0.156126         1.330903
 C        -4.644881        -0.108682         1.604517
 C        -4.954131         0.606617         2.874862
 O        -6.028908         0.692537         3.458403
 H         1.890856         0.354151         0.960342
 H         1.853358        -1.136417         0.044001
 H         2.011221         0.452559        -0.758826
 H        -3.172024        -0.544408        -0.759361
 H        -3.126754         2.252205        -0.013583
 H        -2.698201        -1.266197         1.349224
 H        -2.424857         0.453214         1.935986
 H        -5.026892         0.485482         0.827882
 H        -5.034188        -1.158045         1.635167
 H        -4.171132         1.382301         3.370470
