19
Iteration:  4115
 C         1.173738         0.716308        -0.501760
 C         0.073786         0.154000         0.261985
 C        -1.129001        -0.025313         0.404664
 C        -2.485372        -0.188957         0.693394
 O        -3.271840        -0.357642        -0.512440
 C        -3.149278         1.101390         1.280319
 C        -4.653306         1.270287         1.347049
 C        -5.475335         0.577379         2.381861
 O        -5.349402        -0.189164         3.318266
 H         1.588507         1.703937        -0.253522
 H         1.912701        -0.035832        -0.518606
 H         0.877017         0.641810        -1.567407
 H        -2.571348        -0.991060         1.481487
 H        -3.194100        -1.243665        -0.911530
 H        -2.677772         1.283910         2.241674
 H        -2.703219         1.875152         0.695872
 H        -5.029666         2.299217         1.308925
 H        -5.006949         0.738252         0.371606
 H        -6.527786         0.901301         2.044322
