19
Iteration:  2766charge 0 multiplicity 1
 C         1.442598        -0.190461        -0.255341
 C         0.045108        -0.087757         0.138465
 C        -1.171072         0.168889         0.280914
 C        -2.658360         0.163947         0.069460
 O        -3.164837         0.623752        -1.204119
 C        -3.417102         0.768177         1.256431
 C        -4.624037        -0.086193         1.698967
 C        -5.207149         0.186421         3.113057
 O        -5.575097         1.275637         3.539421
 H         2.224938         0.534900         0.008832
 H         1.752509        -1.287780        -0.130695
 H         1.227943         0.089893        -1.330310
 H        -2.737154        -0.965468         0.051791
 H        -2.958465         1.555049        -1.020137
 H        -2.795864         0.702185         2.158502
 H        -3.664419         1.820582         0.966566
 H        -5.498114        -0.210608         1.034713
 H        -4.236253        -1.109571         1.855875
 H        -5.416193        -0.825742         3.589667
