19
Iteration:  4605
 C         1.347720         0.310750         0.270068
 C        -0.081885         0.208919         0.149032
 C        -1.317113         0.159843         0.047906
 C        -2.767560        -0.071242         0.229560
 O        -3.458069        -0.197181        -1.039965
 C        -3.347577         1.056429         1.118403
 C        -4.886635         1.018261         1.455676
 C        -5.318619         0.261860         2.643198
 O        -4.596871         0.216804         3.616256
 H         1.621024        -0.429189         1.060563
 H         1.941154         0.007978        -0.560961
 H         1.688746         1.344402         0.609341
 H        -2.885538        -1.010273         0.849697
 H        -2.910191         0.361871        -1.634163
 H        -2.978207         1.108261         2.170463
 H        -3.238513         2.098978         0.733832
 H        -5.251789         2.063440         1.594036
 H        -5.337723         0.678966         0.534762
 H        -6.308904        -0.174695         2.626667
