19
Iteration:  4372
 C         1.178627         0.336371        -0.363024
 C        -0.198864         0.285202        -0.017431
 C        -1.295629         0.008663         0.409459
 C        -2.608170         0.165502         0.894383
 O        -3.443519        -0.498653        -0.088849
 C        -3.155146         1.571542         1.266871
 C        -4.743753         1.555819         1.464773
 C        -5.343478         0.279783         2.117481
 O        -4.766318        -0.521440         2.802090
 H         1.566308         0.348633         0.671646
 H         1.511988        -0.689790        -0.790128
 H         1.466431         1.147717        -0.992381
 H        -2.852622        -0.369627         1.883591
 H        -3.004292        -1.218956        -0.547682
 H        -2.803636         1.930698         2.256502
 H        -2.885723         2.419043         0.581247
 H        -5.061116         2.456153         2.062147
 H        -5.224020         1.591062         0.497239
 H        -6.360383        -0.052559         1.872318
