19
Iteration:   818charge 0 multiplicity 1
 C         1.457542        -0.250528        -0.114109
 C        -0.098258        -0.405319         0.017818
 C        -1.284779        -0.056787        -0.003967
 C        -2.719570         0.282973        -0.042424
 O        -2.819617         1.657869        -0.449298
 C        -3.282197         0.274590         1.340940
 C        -4.813503         0.309546         1.381648
 C        -5.210841         0.734785         2.741583
 O        -5.693717         0.014318         3.613362
 H         1.925657        -0.081181         0.921527
 H         1.983097        -1.029769        -0.609765
 H         1.650764         0.676670        -0.745570
 H        -3.313762        -0.467322        -0.746542
 H        -2.529828         1.966632        -1.353595
 H        -2.788316        -0.350978         2.046578
 H        -2.922063         1.271146         1.801319
 H        -4.934031         1.104958         0.732257
 H        -5.196916        -0.675288         0.969127
 H        -5.263798         1.897379         2.697486
