19
Iteration:  2664charge 0 multiplicity 1
 C         1.417029        -0.034474         0.123929
 C        -0.050710         0.034257         0.049778
 C        -1.242275         0.251902        -0.221895
 C        -2.703411         0.025348         0.009477
 O        -3.578165         0.749018        -0.896206
 C        -3.078573         0.281529         1.524109
 C        -4.550295        -0.242429         1.687464
 C        -5.476137         0.446527         2.683017
 O        -5.078787         1.285368         3.482766
 H         1.801071         0.956193         0.487701
 H         1.708034        -0.938856         0.785874
 H         1.694146        -0.328679        -0.897625
 H        -2.846312        -0.998056        -0.305586
 H        -3.254165         1.681312        -1.028550
 H        -2.467711        -0.052997         2.309443
 H        -2.846966         1.294781         1.684038
 H        -5.033947        -0.176910         0.740234
 H        -4.623737        -1.262333         1.962179
 H        -6.424300        -0.102961         2.774215
