19
Iteration:  4230charge 0 multiplicity 1
 C         1.330130         0.287313        -0.597345
 C         0.019214         0.475021         0.098124
 C        -1.165304         0.262268         0.271168
 C        -2.495133         0.052650         0.846356
 O        -3.444783        -0.633290        -0.122223
 C        -3.224872         1.365674         1.589844
 C        -4.713586         1.352783         1.314648
 C        -5.474444         0.352384         2.060607
 O        -5.164174        -0.280644         3.073026
 H         2.118651         0.609905         0.078292
 H         1.598062        -0.769356        -0.961770
 H         1.338106         0.805207        -1.542287
 H        -2.282764        -0.743030         1.597673
 H        -2.847162        -0.619635        -0.888519
 H        -3.024268         1.145937         2.648810
 H        -2.799492         2.388546         1.412814
 H        -5.267641         2.298080         1.723801
 H        -4.944969         1.271408         0.241157
 H        -6.472122         0.143103         1.667074
