19
Iteration:  4698charge 0 multiplicity 1
 C         1.273814         0.096770         0.455093
 C        -0.141711         0.181791         0.160092
 C        -1.346657         0.364813         0.162087
 C        -2.775651         0.051559         0.232789
 O        -3.361349         0.009166        -1.151153
 C        -3.633199         1.054007         1.053652
 C        -5.022160         0.654924         1.299381
 C        -5.242757         0.396424         2.820384
 O        -4.269637         0.264490         3.531334
 H         1.696162        -0.866709         0.746205
 H         2.016626         0.410400        -0.386172
 H         1.419108         0.827949         1.219643
 H        -2.824941        -1.052917         0.597175
 H        -2.699362        -0.458322        -1.654539
 H        -3.021815         1.260383         1.925292
 H        -3.533121         1.897819         0.363062
 H        -5.646879         1.536926         1.088258
 H        -5.373703        -0.235285         0.783270
 H        -6.265132         0.419398         3.202001
