19
Iteration:   894
 C         1.487418        -0.314653        -0.318819
 C         0.133157        -0.142162        -0.247562
 C        -1.047325         0.003431         0.030008
 C        -2.520235         0.293082         0.097879
 O        -2.970530         1.404824        -0.529033
 C        -3.231050         0.233500         1.422678
 C        -4.734960         0.469812         1.556066
 C        -5.280645         0.723037         2.955656
 O        -6.187140         0.067901         3.457168
 H         1.876859        -0.492151         0.737260
 H         1.736718        -1.147870        -0.911211
 H         2.083458         0.506443        -0.780150
 H        -2.972016        -0.597031        -0.341832
 H        -2.284060         1.748290        -1.094280
 H        -2.918286        -0.641809         1.964938
 H        -2.721817         0.959751         2.160755
 H        -4.962831         1.475652         1.100425
 H        -5.154324        -0.472484         1.069002
 H        -4.877095         1.649755         3.474552
