19
Iteration:  1091
 C         1.356139        -0.160158        -0.445822
 C         0.058235         0.043480         0.047195
 C        -1.082120        -0.038825         0.224911
 C        -2.541728         0.222662         0.102758
 O        -2.930270         1.311216        -0.724924
 C        -3.167761         0.198635         1.447356
 C        -4.684926         0.440617         1.585164
 C        -5.226796         0.084586         2.901775
 O        -6.169198         0.639530         3.438728
 H         1.932609        -0.855862         0.256073
 H         1.367894        -0.653006        -1.389252
 H         1.977469         0.757866        -0.499426
 H        -2.913504        -0.586767        -0.421800
 H        -2.146056         1.546138        -1.302942
 H        -3.148261        -0.818661         1.871512
 H        -2.641989         0.874206         2.186993
 H        -4.806583         1.585507         1.410793
 H        -5.098439        -0.154399         0.825698
 H        -4.504597        -0.633540         3.465603
