19
Iteration:  2200charge 0 multiplicity 1
 C         1.339923         0.262776        -0.217656
 C        -0.010283         0.169479         0.176823
 C        -1.227663         0.083845         0.386443
 C        -2.673003        -0.122861         0.187897
 O        -3.286502         1.093202        -0.322279
 C        -3.408258        -0.603244         1.460388
 C        -4.967164        -0.528138         1.525088
 C        -5.361677         0.632928         2.452579
 O        -4.778605         1.616385         2.930381
 H         1.429902         0.704913        -1.283254
 H         1.974029         0.934389         0.291275
 H         1.933235        -0.675024        -0.395159
 H        -2.802874        -0.719315        -0.769429
 H        -3.124828         1.943800         0.074858
 H        -3.142981        -1.675887         1.527008
 H        -3.068673        -0.034622         2.377332
 H        -5.388226         0.005401         0.636792
 H        -5.578072        -1.411732         1.756802
 H        -6.487272         0.623549         2.575282
