19
Iteration:  3905charge 0 multiplicity 1
 C         1.250205         0.054691         0.409380
 C        -0.232627         0.371947         0.435542
 C        -1.418705         0.443409         0.333564
 C        -2.892786         0.063672         0.388953
 O        -3.426465        -0.627097        -0.692060
 C        -3.672608         1.453281         0.731978
 C        -5.046018         1.030607         1.268889
 C        -5.004779         0.386511         2.557687
 O        -4.010508        -0.033595         3.140102
 H         1.881337         0.881239         0.088910
 H         1.589789        -0.226145         1.470972
 H         1.456670        -0.803912        -0.228448
 H        -2.864736        -0.535199         1.349666
 H        -3.447347        -0.110447        -1.516708
 H        -3.242101         2.070150         1.526933
 H        -3.728045         2.137263        -0.163643
 H        -5.611049         1.998075         1.405097
 H        -5.846426         0.620528         0.443972
 H        -5.963636         0.577632         3.115212
