19
Iteration:  4416
 C         1.395322         0.333400        -0.280027
 C        -0.027024         0.158548         0.001464
 C        -1.192850         0.377235         0.213560
 C        -2.475828         0.118804         0.687779
 O        -3.607893        -0.355046        -0.116018
 C        -3.256119         1.349014         1.262964
 C        -4.741964         1.329809         1.354266
 C        -5.490639         0.400492         2.401004
 O        -4.935884        -0.535250         2.948905
 H         2.009738         0.206013         0.616399
 H         1.785649        -0.623708        -0.833343
 H         1.601940         1.179508        -0.901663
 H        -2.325637        -0.686771         1.497721
 H        -3.247651        -1.144723        -0.523510
 H        -2.664424         1.696360         2.142010
 H        -3.090434         2.197591         0.532353
 H        -5.108398         2.337562         1.610058
 H        -5.203865         1.170774         0.392538
 H        -6.599287         0.785011         2.629728
