19
Iteration:  4349
 C         1.205780         0.322595        -0.471954
 C        -0.193838         0.337294         0.148474
 C        -1.323997         0.265679         0.637392
 C        -2.724735        -0.009632         0.970164
 O        -3.550735        -0.503586        -0.132396
 C        -3.192579         1.387803         1.273482
 C        -4.660329         1.553575         1.470776
 C        -5.260000         0.274667         1.922608
 O        -4.686709        -0.415637         2.771584
 H         1.975934         0.408666         0.304968
 H         1.304070        -0.716467        -0.965882
 H         1.263988         1.049283        -1.252773
 H        -2.854496        -0.666481         1.899526
 H        -3.282750        -1.308300        -0.604686
 H        -2.624194         1.907004         2.059967
 H        -2.957895         1.947178         0.344959
 H        -4.806420         2.181801         2.359568
 H        -5.142682         2.014227         0.589652
 H        -6.283563        -0.010809         1.808477
