19
Iteration:  3402charge 0 multiplicity 1
 C         1.361307        -0.177640        -0.020802
 C        -0.106022         0.044306        -0.268300
 C        -1.318309         0.251080        -0.099746
 C        -2.712688         0.180842         0.065164
 O        -3.405082         1.220931        -0.481211
 C        -3.092362         0.044288         1.671539
 C        -4.476977        -0.580189         1.912942
 C        -5.353622         0.260181         2.781484
 O        -5.302365         1.473186         2.850711
 H         1.764635        -1.159420        -0.303299
 H         2.080798         0.664713        -0.376811
 H         1.538610        -0.293510         1.068239
 H        -2.944595        -0.740171        -0.462491
 H        -2.735733         1.817870        -0.848973
 H        -2.316457        -0.498827         2.212520
 H        -3.070911         1.113477         1.967450
 H        -5.076752        -0.452526         1.006661
 H        -4.401429        -1.693221         2.183692
 H        -6.160103        -0.343599         3.289222
