19
Iteration:   348charge 0 multiplicity 1
 C         1.442207        -0.103934        -0.391971
 C         0.060842        -0.287587        -0.164795
 C        -1.131469        -0.037224         0.043732
 C        -2.555688         0.172521         0.139363
 O        -2.865598         1.407158        -0.544972
 C        -3.140752         0.337292         1.565722
 C        -4.704838         0.321302         1.580551
 C        -5.196321         0.634672         2.935122
 O        -6.269411         0.217404         3.335272
 H         1.896902         0.526818         0.391226
 H         2.084773        -1.032043        -0.472388
 H         1.593556         0.415677        -1.369805
 H        -2.907511        -0.739393        -0.396665
 H        -2.900829         1.187754        -1.503784
 H        -2.680813        -0.309985         2.476069
 H        -2.887245         1.327289         1.966403
 H        -4.866589         1.238423         1.076466
 H        -5.211554        -0.514164         1.225190
 H        -4.287972         1.206856         3.650616
