19
Iteration:  1537charge 0 multiplicity 1
 C         1.475571        -0.289617        -0.328524
 C         0.129362         0.019192         0.011080
 C        -1.024886         0.315404         0.190920
 C        -2.528451         0.270146         0.230444
 O        -3.130655         1.014994        -0.799125
 C        -3.198175         0.478810         1.581094
 C        -4.688522         0.365652         1.448031
 C        -5.621945         0.023139         2.590369
 O        -5.714741         0.643091         3.655118
 H         1.570239        -1.339110        -0.754820
 H         1.621580         0.277270        -1.251766
 H         2.362669        -0.066774         0.317950
 H        -2.844249        -0.854333         0.097107
 H        -2.568257         1.696154        -1.160969
 H        -2.902106        -0.275516         2.441081
 H        -2.792513         1.445285         2.050738
 H        -5.208474         1.230547         0.968161
 H        -4.742174        -0.413190         0.732517
 H        -6.508204        -0.661202         2.373592
