19
Iteration:  4708charge 0 multiplicity 1
 C         1.240618         0.149775         0.399499
 C        -0.166189         0.125461         0.265493
 C        -1.385322         0.364611         0.221102
 C        -2.809859         0.032120         0.255199
 O        -3.297031         0.007734        -1.238958
 C        -3.585311         1.020893         1.098406
 C        -5.082489         0.693524         1.304040
 C        -5.197482         0.401387         2.784790
 O        -4.208286         0.293204         3.511291
 H         1.522331        -0.888697         0.649121
 H         1.779601         0.525662        -0.572562
 H         1.585221         0.726870         1.243313
 H        -3.034169        -1.044671         0.595137
 H        -2.765514        -0.672839        -1.636731
 H        -3.292231         1.223789         2.132154
 H        -3.630609         2.031530         0.727635
 H        -5.817671         1.439080         0.901068
 H        -5.187247        -0.093355         0.611071
 H        -6.223202         0.208414         3.217426
