19
Iteration:  4504
 C         1.235900         0.457278        -0.302934
 C        -0.104242         0.123058         0.187661
 C        -1.226443        -0.089155         0.532864
 C        -2.681843        -0.108012         0.575036
 O        -3.180094        -0.144638        -0.788818
 C        -3.299621         1.227085         1.158804
 C        -4.896485         1.246501         1.442175
 C        -5.480299         0.495759         2.594764
 O        -4.799379        -0.224461         3.284321
 H         1.969670         0.482315         0.523546
 H         1.645443        -0.197666        -1.112286
 H         1.237967         1.502361        -0.564139
 H        -2.986762        -1.024511         1.135496
 H        -2.632402        -0.707477        -1.335429
 H        -3.010638         1.435537         2.187049
 H        -3.003592         1.944227         0.357124
 H        -5.167888         2.301645         1.523460
 H        -5.313230         0.952478         0.475411
 H        -6.626889         0.673079         2.805087
