19
Iteration:   999
 C         1.475482        -0.170824        -0.346190
 C         0.009895        -0.204948        -0.342337
 C        -1.086484         0.026472        -0.067109
 C        -2.452461         0.198633         0.139443
 O        -3.069982         1.316705        -0.503633
 C        -2.971576         0.309285         1.623056
 C        -4.483741         0.515073         1.703270
 C        -5.254291         0.250725         3.045163
 O        -6.441343         0.463497         3.185576
 H         1.892238        -0.573285         0.559480
 H         1.958678        -0.884922        -1.116752
 H         1.854599         0.859673        -0.444742
 H        -2.891279        -0.719744        -0.123798
 H        -2.694466         1.440426        -1.361283
 H        -2.706009        -0.705369         2.038026
 H        -2.556997         1.194184         2.081942
 H        -4.813445         1.565716         1.639360
 H        -5.017452        -0.011625         0.961342
 H        -4.735021         0.013704         3.962860
