19
Iteration:   702
 C         1.297403        -0.589903         0.348805
 C        -0.127146        -0.189687         0.036187
 C        -1.287138         0.218538        -0.124055
 C        -2.696765         0.444441        -0.090389
 O        -3.264021         1.628905        -0.824476
 C        -3.198264         0.277154         1.270458
 C        -4.657952         0.430471         1.373226
 C        -5.014362         0.713960         2.799312
 O        -5.471096        -0.104439         3.563212
 H         1.584307        -0.448660         1.400830
 H         1.445059        -1.651395         0.121673
 H         2.036572        -0.136482        -0.282107
 H        -3.173352        -0.435023        -0.675371
 H        -2.949725         2.382391        -0.240012
 H        -2.711779        -0.771479         1.544825
 H        -2.525382         0.780861         1.948295
 H        -5.156989         1.137611         0.527906
 H        -4.890614        -0.684685         1.308462
 H        -4.712993         1.530257         3.329563
