19
Iteration:  1310charge 0 multiplicity 1
 C         1.301935        -0.075915         0.298139
 C        -0.144382        -0.036629         0.103472
 C        -1.305098         0.066676        -0.253196
 C        -2.732455         0.208446        -0.204024
 O        -3.229065         1.485157        -0.368423
 C        -3.169607        -0.306327         1.106743
 C        -4.542724         0.064821         1.415899
 C        -4.870843         0.179415         2.928358
 O        -5.658360         1.051264         3.367343
 H         1.811481        -0.945783         0.765483
 H         1.756065         0.093863        -0.712057
 H         1.620630         0.791796         0.891436
 H        -3.121993        -0.562100        -0.988995
 H        -3.063608         1.831860        -1.284907
 H        -3.158199        -1.323625         1.085837
 H        -2.507139         0.226054         1.731874
 H        -4.981787         1.010828         1.057283
 H        -5.284663        -0.686250         1.132044
 H        -4.342092        -0.443614         3.775617
