19
Iteration:  4430
 C         1.421311         0.233194        -0.297812
 C         0.031461         0.350381         0.115331
 C        -1.189597         0.351722         0.106532
 C        -2.625265         0.057280         0.707448
 O        -3.517694        -0.408315        -0.287345
 C        -3.209486         1.352746         1.302236
 C        -4.838866         1.351594         1.397749
 C        -5.410004         0.453642         2.445492
 O        -4.989088        -0.520575         3.015419
 H         2.171057         0.346318         0.520549
 H         1.594160        -0.607288        -0.962333
 H         1.656570         1.197682        -0.845563
 H        -2.410345        -0.696049         1.523835
 H        -3.344575        -1.336402        -0.604413
 H        -2.859184         1.481891         2.348694
 H        -2.867137         2.154807         0.608122
 H        -5.163878         2.447426         1.495136
 H        -5.269500         1.000244         0.474250
 H        -6.563287         0.749518         2.647558
