19
Iteration:   452
 C         1.452899        -0.388116        -0.420896
 C         0.036564        -0.168508        -0.185013
 C        -1.115525         0.055714         0.248449
 C        -2.553268         0.368195         0.260176
 O        -3.051944         1.181007        -0.766210
 C        -3.171432         0.554456         1.723599
 C        -4.636404         0.704507         1.543324
 C        -5.252240         0.676234         2.847595
 O        -6.030774        -0.183133         3.264327
 H         2.073758         0.066754         0.418910
 H         1.708119        -1.505818        -0.443195
 H         1.806039         0.019127        -1.398309
 H        -2.985964        -0.592724         0.074298
 H        -3.057411         2.061062        -0.381160
 H        -2.883889        -0.379315         2.213747
 H        -2.549360         1.386896         2.172907
 H        -4.798151         1.580292         0.886874
 H        -5.199222        -0.020763         0.860357
 H        -4.951713         1.518322         3.588671
