19
Iteration:  2296charge 0 multiplicity 1
 C         1.003055         0.232577         0.597716
 C        -0.294300         0.225444        -0.075290
 C        -1.496699         0.128569        -0.201361
 C        -3.002821        -0.040895        -0.016802
 O        -3.598538         1.295521        -0.037911
 C        -3.143013        -0.805496         1.321482
 C        -4.593156        -0.757088         1.869777
 C        -5.059530         0.758964         2.178104
 O        -4.278011         1.638072         2.591649
 H         1.705443         0.973657         0.195960
 H         0.830993         0.619057         1.571761
 H         1.603266        -0.693656         0.545876
 H        -3.315349        -0.664293        -0.818050
 H        -3.095579         1.766999         0.632439
 H        -3.053189        -1.856989         1.129952
 H        -2.401819        -0.419896         1.988488
 H        -5.249377        -1.319107         1.189394
 H        -4.819449        -1.278857         2.884457
 H        -6.137024         0.832500         1.884394
