19
Iteration:  3237charge 0 multiplicity 1
 C         1.333222         0.133104        -0.292616
 C        -0.111759         0.257587        -0.118755
 C        -1.275199         0.203395         0.155655
 C        -2.718867        -0.064489         0.273479
 O        -3.506473         1.042132        -0.096528
 C        -3.161197        -0.535679         1.687729
 C        -4.642608        -0.617593         1.775600
 C        -5.334657         0.646223         2.230876
 O        -4.956184         1.650587         2.806667
 H         1.686943        -0.849376        -0.001397
 H         1.581232         0.460572        -1.342093
 H         1.748757         0.859683         0.395991
 H        -2.815168        -0.940732        -0.351338
 H        -2.772400         1.689232        -0.203481
 H        -2.682036        -1.511187         1.970578
 H        -2.943201         0.202681         2.495599
 H        -5.089731        -0.837872         0.814253
 H        -4.949282        -1.293445         2.502273
 H        -6.441797         0.661225         1.984798
