19
Iteration:   685charge 0 multiplicity 1
 C         1.217655        -0.587666         0.387938
 C        -0.115125        -0.203209        -0.033971
 C        -1.221099         0.243155        -0.168762
 C        -2.661700         0.403297        -0.259711
 O        -3.166404         1.590201        -0.799129
 C        -3.180870         0.365449         1.269854
 C        -4.738377         0.393134         1.441175
 C        -4.964415         0.651902         2.886401
 O        -5.532737        -0.139312         3.588094
 H         1.298776        -0.267286         1.436566
 H         1.449414        -1.695843         0.288338
 H         1.976285        -0.046449        -0.239492
 H        -3.220845        -0.439522        -0.689139
 H        -3.124732         2.364897        -0.174862
 H        -2.786249        -0.444969         1.837462
 H        -2.650623         1.297333         1.679436
 H        -4.974888         1.282537         0.892342
 H        -5.193973        -0.521295         1.041742
 H        -4.640919         1.805560         3.194227
