19
Iteration:  4889
 C         1.225790         0.256022         0.594434
 C        -0.188668         0.144183         0.264948
 C        -1.385754         0.254935         0.005540
 C        -2.762852         0.089939         0.272117
 O        -3.596042        -0.382672        -0.902251
 C        -3.423090         1.220439         0.987518
 C        -4.911440         0.948958         1.259610
 C        -5.119092         0.331641         2.593621
 O        -4.215157         0.173799         3.412255
 H         1.959650        -0.072411        -0.143711
 H         1.363056         1.359626         0.616598
 H         1.272631         0.111247         1.740808
 H        -2.975952        -0.827696         0.900281
 H        -3.692613         0.324503        -1.606821
 H        -2.956539         1.305938         1.986133
 H        -3.414399         2.140912         0.392880
 H        -5.570366         1.786460         1.086773
 H        -5.133390         0.094448         0.520916
 H        -6.076010        -0.136536         2.780609
