19
Iteration:  1925
 C         1.310303        -0.197914         0.431471
 C        -0.088636        -0.065808         0.060231
 C        -1.268707         0.213582         0.044062
 C        -2.617724         0.204308        -0.180604
 O        -3.170622         0.932146        -1.258463
 C        -3.376509         0.606777         1.119485
 C        -4.746783         0.105459         1.458225
 C        -5.496796         0.336430         2.869888
 O        -4.963317         0.653155         3.941047
 H         1.950025        -0.585588        -0.409994
 H         1.746911         0.711607         0.859763
 H         1.494267        -0.800474         1.355047
 H        -2.858629        -0.866298        -0.305148
 H        -2.709840         1.746883        -1.447869
 H        -2.676914         0.276636         1.959938
 H        -3.490780         1.736669         1.097822
 H        -5.343491         0.661877         0.633728
 H        -4.983074        -0.967151         1.124177
 H        -6.568964         0.040666         2.753261
