19
Iteration:  3814
 C         1.270661         0.181054         0.370059
 C        -0.285406         0.248645         0.384447
 C        -1.474670         0.082838         0.368254
 C        -2.902314        -0.038846         0.338465
 O        -3.159241        -0.242817        -1.224446
 C        -3.670485         1.205908         0.890647
 C        -5.080285         0.927467         1.322052
 C        -5.141880         0.330933         2.756197
 O        -4.097806         0.401598         3.455322
 H         1.689030         0.890441        -0.349719
 H         1.673501         0.319829         1.385744
 H         1.532060        -0.852280         0.132584
 H        -3.325982        -0.963088         0.763518
 H        -2.995964        -1.187333        -1.406438
 H        -3.111673         1.680362         1.777872
 H        -3.674732         1.820578        -0.093275
 H        -5.418226         2.001427         1.396576
 H        -5.754739         0.359875         0.492052
 H        -6.062544        -0.147690         3.216207
