19
Iteration:  3004
 C         1.293986         0.271873         0.041248
 C        -0.118947         0.113770        -0.027874
 C        -1.344730         0.129693        -0.057539
 C        -2.809140        -0.148386         0.165205
 O        -3.687278         0.792058        -0.529473
 C        -3.060302        -0.322064         1.625512
 C        -4.513876        -0.535031         1.837729
 C        -5.264188         0.812185         2.237270
 O        -4.830298         1.590985         3.068402
 H         1.847255         0.169605         0.970632
 H         1.797793        -0.360941        -0.611919
 H         1.565918         1.284807        -0.148467
 H        -3.041654        -1.121165        -0.381203
 H        -3.589801         1.687975        -0.157380
 H        -2.588967        -1.223865         2.020164
 H        -2.743477         0.581148         2.178126
 H        -5.057962        -1.105155         1.000734
 H        -4.740450        -1.006648         2.880098
 H        -6.372146         0.881829         1.926276
