19
Iteration:  1758charge 0 multiplicity 1
 C         1.088679         0.151321         0.755509
 C        -0.224390         0.179317         0.263660
 C        -1.304435        -0.083818        -0.224093
 C        -2.785225        -0.099770        -0.275036
 O        -3.356399         0.864544        -1.192271
 C        -3.253515         0.105324         1.276264
 C        -4.667522         0.726880         1.379851
 C        -5.257009         0.662587         2.749179
 O        -4.661686         0.273363         3.708970
 H         1.675359        -0.549186         0.219653
 H         1.699737         1.139123         0.819240
 H         1.108276        -0.094334         1.801357
 H        -3.094853        -0.950284        -0.849738
 H        -2.900015         1.694519        -1.285473
 H        -3.330035        -0.837172         1.734423
 H        -2.387956         0.657103         1.685804
 H        -4.889477         1.731788         0.956660
 H        -5.430029         0.042063         0.844241
 H        -6.317648         0.991603         2.867057
