19
Iteration:  2250charge 0 multiplicity 1
 C         1.321236         0.248438         0.187085
 C        -0.194212         0.187947         0.167350
 C        -1.412879         0.150730        -0.017252
 C        -2.930855        -0.044977         0.092691
 O        -3.551463         1.197617        -0.191684
 C        -3.263596        -0.700379         1.477663
 C        -4.745335        -0.717346         1.656870
 C        -5.224076         0.764945         2.297437
 O        -4.409803         1.571255         2.708279
 H         1.894566         0.744697        -0.555720
 H         1.745962         0.696642         1.127322
 H         1.755934        -0.740429         0.084685
 H        -3.265110        -0.689815        -0.712240
 H        -3.517925         1.827544         0.557582
 H        -2.842881        -1.703598         1.406872
 H        -3.033300        -0.116315         2.361019
 H        -5.440346        -0.493371         0.843658
 H        -5.149554        -1.590164         2.219409
 H        -6.364190         0.883878         2.218853
