19
Iteration:  3868
 C         1.234314         0.100776         0.362254
 C        -0.242234         0.141945         0.489382
 C        -1.483334         0.208580         0.453216
 C        -2.868675         0.155656         0.430522
 O        -3.360974        -0.335090        -0.782854
 C        -3.786372         1.490631         0.600773
 C        -5.050490         0.911018         1.243722
 C        -4.978620         0.365909         2.611681
 O        -3.959368         0.084238         3.227352
 H         1.563838         1.011364        -0.158397
 H         1.734877         0.089758         1.323024
 H         1.602914        -0.773126        -0.187823
 H        -3.237011        -0.566404         1.115699
 H        -2.677018        -0.444385        -1.460151
 H        -3.376971         2.276591         1.301167
 H        -4.050449         1.890851        -0.409274
 H        -5.961999         1.530750         1.390923
 H        -5.384491        -0.109181         0.699121
 H        -5.956720         0.316615         3.152764
