19
Iteration:  4845charge 0 multiplicity 1
 C         1.207025         0.331130         0.476616
 C        -0.213756         0.291469         0.430602
 C        -1.385943        -0.018293         0.293338
 C        -2.865034        -0.078822         0.161862
 O        -3.477257        -0.199323        -1.103340
 C        -3.486896         1.212608         0.874455
 C        -4.967660         0.998351         1.345893
 C        -5.035164         0.136032         2.630998
 O        -4.251971         0.318196         3.537016
 H         1.398611        -0.488991        -0.255544
 H         1.779876         1.147891        -0.001680
 H         1.594239         0.075254         1.556560
 H        -3.236498        -0.917107         0.843266
 H        -3.092061         0.514316        -1.690899
 H        -2.675745         1.677248         1.447657
 H        -3.484166         1.731907        -0.090207
 H        -5.298117         1.979915         1.619311
 H        -5.597909         0.376697         0.635263
 H        -5.740742        -0.760734         2.610387
