19
Iteration:  1980
 C         1.426389        -0.306672         0.038698
 C        -0.016654         0.100497         0.204591
 C        -1.226986         0.263716         0.117580
 C        -2.588816         0.171823         0.108599
 O        -3.305541         0.908488        -0.992719
 C        -3.274558         0.536395         1.464558
 C        -4.789615         0.043575         1.298946
 C        -5.418527         0.111120         2.714500
 O        -5.152691         0.959172         3.577277
 H         1.745316        -0.656512        -0.997875
 H         2.175634         0.406446         0.370475
 H         1.613655        -1.240435         0.660606
 H        -2.975552        -0.854591         0.063075
 H        -2.951217         1.808317        -0.944771
 H        -2.672033         0.211302         2.360020
 H        -3.312530         1.633206         1.680193
 H        -5.220386         0.795524         0.560612
 H        -4.940817        -0.996905         0.904968
 H        -6.474710        -0.268640         2.794975
