19
Iteration:  1478charge 0 multiplicity 1
 C         1.560867        -0.252050        -0.205760
 C         0.125444         0.101533        -0.121752
 C        -1.059523         0.109550         0.091076
 C        -2.592261         0.197610         0.128971
 O        -3.069966         1.279163        -0.684308
 C        -3.218855         0.358426         1.621197
 C        -4.772743         0.263455         1.422771
 C        -5.551555        -0.060698         2.705731
 O        -5.722365         0.807487         3.573964
 H         1.665985        -1.360779        -0.223281
 H         1.954723         0.160172        -1.204556
 H         2.189621         0.193400         0.603753
 H        -3.118624        -0.727638        -0.303228
 H        -3.285558         0.835161        -1.531026
 H        -2.792119        -0.363957         2.356520
 H        -3.138033         1.404861         1.997853
 H        -5.105282         1.246621         1.050766
 H        -5.067183        -0.507770         0.613412
 H        -5.542680        -1.103944         2.886380
