19
Iteration:  3906
 C         1.240288         0.060392         0.413097
 C        -0.223980         0.369027         0.427422
 C        -1.420053         0.452721         0.325765
 C        -2.884553         0.059679         0.386266
 O        -3.425207        -0.634119        -0.687237
 C        -3.673536         1.446567         0.736653
 C        -5.046268         1.034272         1.265590
 C        -5.009329         0.396838         2.555880
 O        -4.012669        -0.037856         3.139465
 H         1.877785         0.905408         0.099128
 H         1.548025        -0.233381         1.460458
 H         1.452030        -0.826104        -0.223666
 H        -2.848101        -0.532108         1.356287
 H        -3.446049        -0.069854        -1.487387
 H        -3.257566         2.020934         1.558956
 H        -3.718046         2.107562        -0.150131
 H        -5.537686         2.024023         1.409340
 H        -5.851219         0.664003         0.493512
 H        -5.979034         0.544555         3.091601
