19
Iteration:   335
 C         1.583001        -0.100879        -0.367241
 C         0.110638        -0.271036        -0.174264
 C        -1.123772        -0.115267         0.004642
 C        -2.551532         0.211026         0.146473
 O        -3.027558         1.437867        -0.523658
 C        -3.105684         0.295299         1.565226
 C        -4.684450         0.313817         1.557780
 C        -5.179232         0.587707         2.931433
 O        -6.299238         0.293806         3.372820
 H         1.981510         0.487993         0.403535
 H         2.121043        -1.113099        -0.405710
 H         1.724832         0.410204        -1.293896
 H        -3.275130        -0.582949        -0.277920
 H        -2.810442         1.320989        -1.457165
 H        -2.629031        -0.669481         2.058097
 H        -2.692061         1.290881         1.959804
 H        -5.084767         1.028862         0.857757
 H        -5.180344        -0.589976         1.133331
 H        -4.555343         1.410317         3.651575
