19
Iteration:   936charge 0 multiplicity 1
 C         1.498873        -0.354460        -0.440310
 C         0.071026        -0.071758         0.013341
 C        -1.143585         0.165028         0.067714
 C        -2.516551         0.211230         0.112673
 O        -3.074607         1.329830        -0.582332
 C        -3.062994         0.234186         1.515909
 C        -4.585172         0.495565         1.577181
 C        -5.177077         0.497813         2.981895
 O        -6.334187         0.238545         3.311081
 H         2.135947        -0.671914         0.391042
 H         1.452766        -1.075207        -1.228294
 H         1.854518         0.583137        -0.893487
 H        -2.777113        -0.759774        -0.444224
 H        -2.452641         1.763297        -1.150947
 H        -2.844988        -0.744019         1.964520
 H        -2.558028         0.934504         2.236146
 H        -4.688850         1.589617         1.186833
 H        -5.275219         0.033645         0.850155
 H        -4.368184         0.870861         3.670566
