19
Iteration:  4966
 C         1.248248         0.353267         0.294862
 C        -0.136293         0.372967         0.479115
 C        -1.340622         0.211917         0.280870
 C        -2.802420        -0.064917         0.314527
 O        -3.401636        -0.488547        -0.894997
 C        -3.516348         1.305209         0.664028
 C        -4.866815         1.228390         1.314860
 C        -5.107781         0.575559         2.781445
 O        -4.457567        -0.266351         3.360754
 H         1.347981         0.260944        -0.787429
 H         1.776448         1.219326         0.699656
 H         1.655222        -0.622099         0.811071
 H        -3.116986        -0.851298         1.024819
 H        -3.204864        -1.441859        -0.983808
 H        -2.885621         1.881870         1.366054
 H        -3.614463         1.912179        -0.217920
 H        -5.214078         2.245493         1.437439
 H        -5.533024         0.599685         0.634851
 H        -6.185845         0.775976         3.181812
