19
Iteration:   443
 C         1.445410        -0.373460        -0.430911
 C         0.029066        -0.170824        -0.198110
 C        -1.070042         0.049024         0.270568
 C        -2.541468         0.262308         0.286584
 O        -3.015893         1.212584        -0.774373
 C        -3.128531         0.543878         1.660924
 C        -4.676087         0.669215         1.581758
 C        -5.294765         0.700760         2.897960
 O        -6.057224        -0.165968         3.252705
 H         2.020057         0.169425         0.288841
 H         1.830164        -1.454321        -0.535208
 H         1.642352         0.115107        -1.369947
 H        -3.037767        -0.555479        -0.219250
 H        -2.915383         2.159833        -0.683483
 H        -2.944017        -0.192826         2.326022
 H        -2.814499         1.423592         2.289848
 H        -4.918715         1.779968         1.346671
 H        -5.066185        -0.183163         0.861154
 H        -4.821821         1.546774         3.388342
