19
Iteration:  1558charge 0 multiplicity 1
 C         1.485416        -0.230545        -0.395009
 C         0.108481         0.077852         0.053187
 C        -1.097605         0.136901         0.252382
 C        -2.535872         0.200540         0.296915
 O        -3.095424         1.018692        -0.839496
 C        -3.214850         0.549116         1.620316
 C        -4.768460         0.354795         1.340773
 C        -5.663536         0.066152         2.539804
 O        -5.532817         0.624811         3.642816
 H         1.604003        -1.351213        -0.713293
 H         1.976028         0.283028        -1.226264
 H         2.187876        -0.059395         0.505467
 H        -3.009305        -0.853900         0.162446
 H        -2.980604         1.902482        -0.390019
 H        -2.803461         0.028781         2.616853
 H        -3.124361         1.580952         2.127441
 H        -5.177992         1.260418         0.786164
 H        -4.904307        -0.473120         0.636798
 H        -6.492999        -0.714818         2.323398
