19
Iteration:   676charge 0 multiplicity 1
 C         1.212865        -0.592695         0.411987
 C        -0.101733        -0.183193        -0.048334
 C        -1.253735         0.226420        -0.274012
 C        -2.640069         0.387002        -0.206112
 O        -3.118882         1.601994        -0.853380
 C        -3.195994         0.361317         1.241459
 C        -4.742467         0.420456         1.443291
 C        -4.999288         0.629296         2.913056
 O        -5.572782        -0.153068         3.668846
 H         1.400947        -0.261905         1.494917
 H         1.439858        -1.651296         0.362290
 H         2.023201        -0.050932        -0.194569
 H        -3.056598        -0.397476        -0.781706
 H        -2.897458         2.287999        -0.149693
 H        -2.498195        -0.170856         1.832576
 H        -2.913803         1.415346         1.535586
 H        -4.852528         1.385371         0.885582
 H        -5.289706        -0.482205         0.915603
 H        -4.669041         1.500145         3.440939
