19
Iteration:  3903charge 0 multiplicity 1
 C         1.265171         0.045007         0.407315
 C        -0.237549         0.375754         0.449557
 C        -1.424368         0.424517         0.346063
 C        -2.902987         0.078214         0.397147
 O        -3.429309        -0.615967        -0.700653
 C        -3.672263         1.462053         0.721418
 C        -5.050032         1.028340         1.266328
 C        -4.997811         0.368968         2.565247
 O        -4.007108        -0.026376         3.140999
 H         1.889679         0.850766         0.065871
 H         1.652963        -0.204926         1.455643
 H         1.462043        -0.774837        -0.245398
 H        -2.915395        -0.539852         1.308246
 H        -3.441587        -0.172889        -1.563940
 H        -3.198179         2.146470         1.470289
 H        -3.748052         2.167718        -0.174604
 H        -5.735875         1.937123         1.410128
 H        -5.784060         0.545608         0.404733
 H        -5.935866         0.616129         3.160450
