19
Iteration:  1889charge 0 multiplicity 1
 C         1.260571        -0.040760         0.598802
 C        -0.179624        -0.036969         0.264789
 C        -1.329641        -0.127769        -0.128968
 C        -2.792063         0.234687        -0.197277
 O        -3.147039         0.951678        -1.347797
 C        -3.325364         0.675529         1.197479
 C        -4.782075         0.177768         1.396921
 C        -5.446703         0.446792         2.861659
 O        -4.722612         0.453900         3.833522
 H         1.842128        -0.465678        -0.175051
 H         1.590791         1.047593         0.729513
 H         1.336573        -0.699803         1.420533
 H        -3.240782        -0.760547        -0.447248
 H        -2.420674         1.569532        -1.494752
 H        -2.675446         0.419718         2.030370
 H        -3.498748         1.725370         1.399104
 H        -5.452250         0.620098         0.651669
 H        -4.919331        -0.923662         1.382949
 H        -6.503344         0.768303         2.976678
