19
Iteration:  1964charge 0 multiplicity 1
 C         1.411007        -0.336738         0.194630
 C         0.054592         0.141703         0.156185
 C        -1.148547         0.189266        -0.018892
 C        -2.677599         0.257370         0.061526
 O        -3.248937         0.869049        -1.063950
 C        -3.337055         0.622882         1.413447
 C        -4.826747         0.102176         1.411951
 C        -5.562406         0.176742         2.726500
 O        -5.062196         0.859503         3.635415
 H         1.668638        -0.615657        -0.807275
 H         2.084557         0.537812         0.397372
 H         1.446848        -1.232236         0.777248
 H        -2.888108        -0.793882        -0.240829
 H        -2.957955         1.811836        -1.106368
 H        -2.811466        -0.027438         2.103077
 H        -3.126839         1.665906         1.669288
 H        -5.482964         0.564230         0.711508
 H        -4.749604        -0.935396         1.133938
 H        -6.171462        -0.705175         3.047488
