19
Iteration:  2927
 C         1.332303        -0.042959         0.165530
 C        -0.117409         0.190568        -0.128523
 C        -1.308879         0.271173        -0.156468
 C        -2.703641         0.012786         0.059597
 O        -3.627157         0.780152        -0.853174
 C        -3.051350         0.119959         1.622820
 C        -4.505878        -0.547109         1.942785
 C        -5.401212         0.479886         2.749667
 O        -4.984397         1.562279         3.060595
 H         1.615002         0.017433         1.216722
 H         1.559812        -0.994872        -0.178036
 H         2.049595         0.536343        -0.356030
 H        -2.811791        -1.062625        -0.265880
 H        -3.028540         1.288222        -1.461080
 H        -2.231731        -0.354008         2.211932
 H        -3.208423         1.162572         1.973110
 H        -5.133295        -0.682111         0.917887
 H        -4.548852        -1.543384         2.607843
 H        -6.421946         0.131140         3.102874
