19
Iteration:  4172charge 0 multiplicity 1
 C         1.422197         0.429720        -0.518774
 C        -0.152129         0.448530        -0.248538
 C        -1.155998         0.149830         0.351089
 C        -2.541037        -0.120023         0.899411
 O        -3.180787        -0.608231        -0.292421
 C        -3.220434         1.150899         1.604012
 C        -4.714810         1.331965         1.246406
 C        -5.654815         0.506799         2.258545
 O        -5.230979        -0.184158         3.186158
 H         1.921736         1.082730         0.240366
 H         1.734696        -0.576074        -0.289836
 H         1.834332         0.887442        -1.441579
 H        -2.343550        -0.969606         1.631004
 H        -3.192729         0.177172        -0.866921
 H        -3.040826         0.901638         2.651057
 H        -2.669166         2.024331         1.315952
 H        -4.937851         2.434079         1.320679
 H        -4.784239         1.109900         0.093588
 H        -6.744293         0.512665         2.124307
