19
Iteration:   663charge 0 multiplicity 1
 C         1.235634        -0.558381         0.426774
 C        -0.066119        -0.162865        -0.030107
 C        -1.214616         0.168593        -0.335214
 C        -2.703080         0.385639        -0.261014
 O        -3.060398         1.613872        -0.903305
 C        -3.169867         0.456944         1.250678
 C        -4.719776         0.447520         1.439539
 C        -5.044472         0.573835         2.980554
 O        -5.632639        -0.187433         3.732758
 H         1.328686        -0.287386         1.489702
 H         1.267967        -1.707709         0.318550
 H         2.077390        -0.158719        -0.203663
 H        -3.338968        -0.437455        -0.738766
 H        -2.597858         2.374009        -0.551869
 H        -2.866074        -0.361660         1.844596
 H        -2.685087         1.433660         1.698359
 H        -5.207932         1.300108         1.009400
 H        -5.226820        -0.494109         1.116576
 H        -4.497129         1.523442         3.257270
