19
Iteration:  3981
 C         1.304283         0.460468         0.329715
 C        -0.125230         0.224628         0.170274
 C        -1.348716         0.188689         0.141091
 C        -2.744402        -0.002016         0.485475
 O        -3.610876        -0.565498        -0.641063
 C        -3.340923         1.387042         0.793719
 C        -4.782758         1.227511         1.304530
 C        -5.201720         0.427022         2.563984
 O        -4.518846        -0.197576         3.369856
 H         1.563014         1.502729         0.330515
 H         1.585202        -0.021102         1.300148
 H         1.887656        -0.083338        -0.385746
 H        -2.839307        -0.627214         1.399116
 H        -3.159053        -1.010297        -1.395029
 H        -2.768884         1.781153         1.622337
 H        -3.347985         1.995959        -0.137851
 H        -5.252310         2.222871         1.425459
 H        -5.401897         0.877764         0.380092
 H        -6.314684         0.294266         2.514649
