19
Iteration:  3584
 C         1.262098         0.444171        -0.245098
 C        -0.144054         0.177710        -0.041296
 C        -1.235497        -0.226740         0.231638
 C        -2.673986        -0.361680         0.213845
 O        -3.085882         0.537866        -0.866469
 C        -3.215676         0.167811         1.584631
 C        -4.694892         0.193564         1.456592
 C        -5.556409         0.808209         2.551535
 O        -5.123706         0.985721         3.688617
 H         1.519330         0.280262        -1.334018
 H         1.540244         1.462194         0.069605
 H         1.836200        -0.323558         0.360547
 H        -2.950518        -1.377193        -0.008772
 H        -2.217800         0.943692        -1.057101
 H        -2.560110        -0.259711         2.398621
 H        -2.912686         1.232036         1.535940
 H        -4.972985         0.675508         0.524306
 H        -5.219004        -0.745405         1.288448
 H        -6.617351         1.044090         2.234449
