19
Iteration:  2592
 C         1.288807         0.559380         0.063017
 C        -0.137693         0.088340        -0.049673
 C        -1.304767        -0.274665        -0.072168
 C        -2.793216        -0.281478         0.013340
 O        -3.174533         0.917258        -0.759795
 C        -3.360267        -0.232274         1.479005
 C        -4.911305        -0.340742         1.617920
 C        -5.354732         0.849174         2.563267
 O        -4.729219         1.309179         3.527092
 H         1.206146         1.623749         0.311323
 H         1.674655         0.113682         0.947899
 H         2.007420         0.353328        -0.736846
 H        -3.311669        -1.141971        -0.506707
 H        -2.371389         1.502121        -0.638758
 H        -2.693341        -1.067309         1.938394
 H        -3.045611         0.486082         2.289369
 H        -5.371929        -0.013571         0.632163
 H        -5.396094        -1.295522         1.976997
 H        -6.356829         1.168361         2.303026
