19
Iteration:  4010charge 0 multiplicity 1
 C         1.300221         0.614410         0.103379
 C        -0.107262         0.217375         0.336593
 C        -1.285220        -0.047283         0.233443
 C        -2.736010        -0.124081         0.471105
 O        -3.565360        -0.382724        -0.608770
 C        -3.268848         1.290635         0.934758
 C        -4.782785         1.166644         1.260213
 C        -5.289520         0.483557         2.507997
 O        -4.622117        -0.146783         3.303167
 H         1.466464         1.714154         0.098072
 H         1.955551         0.204423         0.928147
 H         1.615828         0.222081        -0.887510
 H        -2.953448        -0.778771         1.310530
 H        -3.691808        -1.318492        -0.838835
 H        -2.660230         1.554526         1.867823
 H        -2.963382         1.999800         0.081006
 H        -5.128615         2.222744         1.224466
 H        -5.196426         0.668436         0.431889
 H        -6.410039         0.455233         2.684597
