19
Iteration:  1212
 C         1.413931        -0.148608         0.028387
 C        -0.008727        -0.058894         0.070649
 C        -1.188001         0.042843        -0.159536
 C        -2.696491         0.185304        -0.052282
 O        -3.220244         1.523537        -0.539110
 C        -3.162869         0.073233         1.416713
 C        -4.681018         0.063483         1.432106
 C        -5.104382         0.020611         2.895574
 O        -5.735411         0.958290         3.376699
 H         1.871532        -1.002514         0.589678
 H         1.732319        -0.293666        -1.029255
 H         1.861114         0.788475         0.406194
 H        -3.168537        -0.576911        -0.722444
 H        -2.536263         1.923544        -1.099455
 H        -2.761694        -0.894267         1.794136
 H        -2.641999         0.982209         1.817504
 H        -5.232909         0.890669         0.877674
 H        -4.841689        -0.932104         1.145660
 H        -4.894590        -0.949135         3.419959
