19
Iteration:  1130charge 0 multiplicity 1
 C         1.569435        -0.158273        -0.330418
 C         0.201169        -0.124894        -0.130015
 C        -1.013665         0.110859         0.022321
 C        -2.470596         0.169548         0.003017
 O        -2.976499         1.277660        -0.647398
 C        -3.320725         0.247073         1.472144
 C        -4.841362         0.399080         1.498443
 C        -5.357412         0.091685         2.924593
 O        -6.111221         0.729403         3.627301
 H         1.975955        -0.858494         0.387872
 H         1.765364        -0.466604        -1.386229
 H         2.036489         0.830131        -0.208759
 H        -2.745040        -0.876279        -0.478753
 H        -2.474151         2.063687        -0.491367
 H        -2.900272        -0.685700         1.816937
 H        -2.779417         0.877379         2.155989
 H        -5.368246         1.278935         1.105018
 H        -5.340665        -0.411415         0.852729
 H        -5.002881        -0.917765         3.231144
