19
Iteration:  4932
 C         1.219041         0.287001         0.563758
 C        -0.083045         0.332811         0.008695
 C        -1.312000         0.189201         0.098050
 C        -2.802503        -0.011135         0.292181
 O        -3.455412        -0.446993        -0.844470
 C        -3.570957         1.307846         0.828877
 C        -4.922737         1.079793         1.337124
 C        -5.151871         0.517305         2.735419
 O        -4.354454        -0.114366         3.407108
 H         2.012907        -0.014425        -0.149502
 H         1.578193         1.238846         1.030051
 H         1.200889        -0.431653         1.475531
 H        -2.655033        -0.863160         0.986201
 H        -2.666180        -0.610039        -1.431963
 H        -3.100235         1.627223         1.774455
 H        -3.586692         2.112162         0.087384
 H        -5.421745         2.051780         1.215278
 H        -5.662732         0.470565         0.705223
 H        -6.241807         0.658181         3.100985
