19
Iteration:  1567
 C         1.496778        -0.197444        -0.343560
 C         0.095839         0.076513        -0.004038
 C        -1.084020         0.098306         0.292285
 C        -2.608299         0.121834         0.342005
 O        -3.053857         1.054374        -0.805327
 C        -3.276956         0.566852         1.596607
 C        -4.774150         0.354688         1.277967
 C        -5.611986         0.071397         2.564125
 O        -5.467026         0.607344         3.633633
 H         1.540165        -1.312872        -0.684295
 H         1.727537         0.470672        -1.179833
 H         2.303073        -0.130346         0.478374
 H        -2.948731        -0.901959         0.208274
 H        -3.176984         1.992028        -0.495401
 H        -3.149910        -0.115458         2.491095
 H        -3.040918         1.668491         1.627356
 H        -5.342567         1.190258         0.760095
 H        -4.789447        -0.516780         0.529871
 H        -6.641482        -0.283245         2.493969
