19
Iteration:  2601charge 0 multiplicity 1
 C         1.249118         0.487026         0.114512
 C        -0.120222         0.080735        -0.093574
 C        -1.313899        -0.250809        -0.065630
 C        -2.761389        -0.196970        -0.001771
 O        -3.189614         0.871293        -0.764267
 C        -3.294420        -0.182427         1.428109
 C        -4.872755        -0.302800         1.672522
 C        -5.376296         0.833083         2.570329
 O        -4.791890         1.273034         3.525550
 H         1.502894         1.496155         0.300279
 H         1.758946         0.025479         0.970984
 H         1.827707         0.323108        -0.768382
 H        -3.268700        -1.059838        -0.492724
 H        -2.644928         1.693192        -0.617355
 H        -2.775636        -0.997470         1.983252
 H        -2.896528         0.830905         1.874733
 H        -5.513453        -0.255670         0.688344
 H        -4.938233        -1.357158         2.154517
 H        -6.469275         1.140784         2.402010
