19
Iteration:  3632charge 0 multiplicity 1
 C         1.528926         0.531104         0.021641
 C         0.026975        -0.008527         0.020130
 C        -1.179133        -0.031363         0.099417
 C        -2.665407        -0.277745         0.141620
 O        -3.342183         0.223066        -1.081365
 C        -3.318952         0.250497         1.419682
 C        -4.967187         0.408495         1.415200
 C        -5.457459         0.957174         2.719865
 O        -4.956049         0.784461         3.809216
 H         1.774550         0.812999        -0.965011
 H         1.339409         1.496260         0.545918
 H         2.307930         0.000502         0.481979
 H        -2.946863        -1.376601         0.092994
 H        -2.781257        -0.110428        -1.804811
 H        -2.938811        -0.271004         2.234854
 H        -2.875290         1.237790         1.544536
 H        -5.460710         1.030477         0.588232
 H        -5.735054        -0.486316         1.197700
 H        -6.526712         1.323365         2.571115
