19
Iteration:  3162
 C         1.082659         0.591162        -0.488207
 C        -0.277216         0.319477        -0.056138
 C        -1.248010        -0.209178         0.415287
 C        -2.732065        -0.263008         0.496273
 O        -3.095066         1.046635         0.052268
 C        -3.346373        -0.735637         1.699765
 C        -4.877786        -0.550526         1.796561
 C        -5.330066         0.785985         2.029591
 O        -4.618049         1.622618         2.537305
 H         1.699924        -0.130044        -0.112173
 H         0.997838         0.620311        -1.587336
 H         1.378135         1.567980        -0.203954
 H        -3.048491        -0.904175        -0.461594
 H        -2.828116         1.684216         0.734954
 H        -3.184501        -1.805263         1.883498
 H        -2.791810        -0.195374         2.504560
 H        -5.233612        -0.818513         0.694833
 H        -5.433538        -1.218100         2.609486
 H        -6.385389         1.016436         1.957928
