19
Iteration:  3233
 C         1.342664         0.165351        -0.327983
 C        -0.115599         0.209985        -0.084549
 C        -1.314493         0.208908         0.190673
 C        -2.701697        -0.057375         0.287498
 O        -3.510928         1.036423        -0.090507
 C        -3.134671        -0.558762         1.675302
 C        -4.648813        -0.607260         1.780800
 C        -5.378546         0.688088         2.191212
 O        -4.926733         1.643628         2.802723
 H         1.851483        -0.859103        -0.042547
 H         1.523544         0.501213        -1.350771
 H         1.839542         0.956103         0.327393
 H        -2.766059        -0.941035        -0.357148
 H        -2.786654         1.668336        -0.169996
 H        -2.666947        -1.512143         1.923501
 H        -2.940220         0.131778         2.487121
 H        -5.141787        -0.815613         0.837386
 H        -5.028298        -1.405639         2.504711
 H        -6.480365         0.603537         2.060832
