19
Iteration:  2736charge 0 multiplicity 1
 C         1.361646        -0.326419        -0.121339
 C        -0.007963         0.113427         0.029658
 C        -1.205461         0.410078         0.099533
 C        -2.624114         0.183101         0.115659
 O        -3.229669         0.585801        -1.124247
 C        -3.337746         0.621190         1.408590
 C        -4.632565        -0.145373         1.690924
 C        -5.231365         0.159596         3.035459
 O        -5.431334         1.282018         3.447456
 H         2.121744         0.303743         0.290627
 H         1.438095        -1.333543         0.115135
 H         1.406033        -0.330143        -1.214260
 H        -2.665996        -0.901889         0.252934
 H        -2.861925         1.470862        -1.292438
 H        -2.680863         0.703798         2.283548
 H        -3.582001         1.697847         1.424088
 H        -5.434819         0.104304         0.894220
 H        -4.362467        -1.282479         1.590535
 H        -5.688450        -0.731080         3.550332
