19
Iteration:  2342
 C         0.893921         0.387922         0.722785
 C        -0.454863         0.107768         0.190316
 C        -1.583319         0.015480        -0.212667
 C        -3.005967        -0.056097        -0.275998
 O        -3.641115         1.185544        -0.132940
 C        -3.090432        -0.805144         1.143865
 C        -4.493162        -0.520413         1.895751
 C        -4.939942         0.816542         2.133655
 O        -4.196449         1.549594         2.781336
 H         1.516298         1.183268         0.246619
 H         0.933532         0.517586         1.734828
 H         1.317805        -0.566863         0.339538
 H        -3.540798        -0.707269        -0.920686
 H        -3.076880         1.772404         0.362603
 H        -2.861230        -1.859030         1.000914
 H        -2.312745        -0.347904         1.713206
 H        -5.166464        -1.193031         1.458709
 H        -4.291643        -1.147363         2.830248
 H        -6.028526         1.027114         1.840788
