19
Iteration:  2503
 C         1.153747         0.742354        -0.041684
 C        -0.199215         0.254406         0.154540
 C        -1.311402        -0.177187         0.352370
 C        -2.729379        -0.369762         0.144856
 O        -3.215719         0.877767        -0.513412
 C        -3.671318        -0.710487         1.334134
 C        -5.058087        -0.076046         1.380220
 C        -5.186443         0.843323         2.558725
 O        -4.273984         1.296169         3.189358
 H         1.334812         1.746358        -0.307355
 H         1.815503         0.708460         0.798739
 H         1.563122         0.213886        -0.876656
 H        -2.828033        -1.310156        -0.438479
 H        -2.407743         1.156611        -1.000037
 H        -3.906201        -1.793833         1.252486
 H        -3.263413        -0.629302         2.354718
 H        -5.298666         0.388349         0.428931
 H        -5.862535        -0.660373         1.650020
 H        -6.266743         1.087601         2.905628
