19
Iteration:  2491charge 0 multiplicity 1
 C         1.197297         0.725319        -0.048080
 C        -0.212510         0.268968         0.145702
 C        -1.301824        -0.121695         0.466472
 C        -2.778388        -0.353497         0.117645
 O        -3.228507         0.861886        -0.549028
 C        -3.704460        -0.773181         1.300508
 C        -5.139365        -0.159160         1.407792
 C        -5.121333         0.915858         2.509083
 O        -4.216497         1.320702         3.241206
 H         1.036480         1.713603        -0.265001
 H         1.563809         0.495758         0.956941
 H         1.769279         0.171311        -0.708754
 H        -2.780540        -0.995852        -0.788485
 H        -2.515616         1.251661        -1.035151
 H        -3.699768        -1.868417         1.255637
 H        -3.047045        -0.346726         2.106506
 H        -5.451671         0.320987         0.450712
 H        -5.784898        -0.983031         1.494834
 H        -6.222554         1.058474         2.852896
