19
Iteration:  3841
 C         1.224395         0.151708         0.351879
 C        -0.277571         0.029614         0.393144
 C        -1.458148         0.293662         0.512789
 C        -2.837417         0.064042         0.360963
 O        -3.249496        -0.300537        -1.017234
 C        -3.763014         1.320693         0.758207
 C        -5.173981         0.953395         1.237557
 C        -5.017923         0.355728         2.723217
 O        -3.987704         0.254078         3.301007
 H         1.472376         1.052856        -0.237553
 H         1.597524         0.269456         1.407830
 H         1.750966        -0.751248        -0.016390
 H        -3.185641        -0.822224         0.974675
 H        -2.650123        -0.971753        -1.391191
 H        -3.373162         1.664013         1.697478
 H        -3.732074         2.016275        -0.094626
 H        -5.780382         1.851106         1.336799
 H        -5.668223         0.206663         0.754312
 H        -5.965808        -0.085895         3.144761
