19
Iteration:   539
 C         1.350267        -0.488013         0.003781
 C        -0.048499        -0.201033        -0.104128
 C        -1.209339         0.184503        -0.040082
 C        -2.700417         0.315053         0.074747
 O        -2.961673         1.464395        -0.858908
 C        -3.139561         0.577947         1.442943
 C        -4.705475         0.678180         1.555437
 C        -5.170711         0.613510         3.000616
 O        -5.849554        -0.301008         3.429965
 H         1.764632         0.021939         0.918719
 H         1.617513        -1.614014        -0.001127
 H         1.852707        -0.039329        -0.874004
 H        -2.947809        -0.721315        -0.362678
 H        -2.860210         0.974097        -1.678294
 H        -2.578480        -0.168555         2.147394
 H        -2.737174         1.577403         1.867395
 H        -4.941871         1.684817         1.160969
 H        -5.043249        -0.202760         1.032351
 H        -4.693637         1.452054         3.624572
