19
Iteration:  4623
 C         1.289750         0.227934         0.387989
 C        -0.184011         0.151880         0.189361
 C        -1.356258         0.383328        -0.058282
 C        -2.732282        -0.007320         0.199441
 O        -3.454097        -0.234909        -1.066886
 C        -3.313543         1.153264         1.067638
 C        -4.799971         0.954238         1.313689
 C        -5.192112         0.298396         2.712509
 O        -4.670850         0.142316         3.792941
 H         1.900242        -0.439382         0.996024
 H         1.748759         0.052904        -0.654616
 H         1.480178         1.221895         0.701674
 H        -2.840072        -1.002821         0.549836
 H        -2.846250         0.083855        -1.782190
 H        -2.657638         1.198451         1.950894
 H        -3.277384         1.969054         0.331752
 H        -5.315114         1.902624         1.442012
 H        -5.398313         0.266930         0.565573
 H        -6.335030        -0.007115         2.715493
