19
Iteration:  4652charge 0 multiplicity 1
 C         1.359798         0.131810         0.500520
 C        -0.106340         0.311784         0.160359
 C        -1.304068         0.225101        -0.105568
 C        -2.778855         0.144428         0.097600
 O        -3.524012        -0.221488        -1.104239
 C        -3.379656         1.310164         0.932365
 C        -4.800947         0.757212         1.432958
 C        -5.249714         0.347684         2.781761
 O        -4.612123         0.118674         3.795718
 H         1.629181        -0.829397         0.983560
 H         2.003687         0.041934        -0.413478
 H         1.789481         0.965918         1.085595
 H        -3.001041        -0.780901         0.747393
 H        -2.875344        -0.220355        -1.848037
 H        -2.697741         1.663722         1.821473
 H        -3.687954         2.199042         0.339606
 H        -5.601885         1.488862         1.132507
 H        -4.945531        -0.133723         0.872180
 H        -6.317210         0.221572         2.791636
