19
Iteration:  3946charge 0 multiplicity 1
 C         1.260921         0.238699         0.474301
 C        -0.150154         0.335879         0.091011
 C        -1.339722         0.286903         0.052070
 C        -2.772738         0.049610         0.460416
 O        -3.403843        -0.805377        -0.683670
 C        -3.579465         1.469999         0.913677
 C        -4.970519         1.246719         1.383042
 C        -5.191202         0.447125         2.575562
 O        -4.270735        -0.091949         3.189679
 H         1.883010         1.104835         0.545668
 H         1.170968        -0.120661         1.545630
 H         1.786641        -0.475848        -0.107072
 H        -2.895608        -0.639391         1.276816
 H        -3.307846        -0.210383        -1.470474
 H        -2.863341         2.061345         1.525776
 H        -3.714505         2.291962         0.147613
 H        -5.380938         2.179933         1.848570
 H        -5.709610         0.885293         0.608178
 H        -6.242952         0.061219         2.747366
