19
Iteration:  3768charge 0 multiplicity 1
 C         1.234709         0.319154         0.440816
 C        -0.184620         0.085104         0.359381
 C        -1.356910         0.000826         0.152605
 C        -2.846280        -0.208660         0.162958
 O        -3.436954        -0.143586        -1.271421
 C        -3.405773         1.215212         0.856545
 C        -4.837954         0.775776         1.327561
 C        -5.130992         0.466824         2.795333
 O        -4.429204         0.460071         3.765585
 H         1.460987         1.008107        -0.407170
 H         1.454030         0.886796         1.291612
 H         1.950304        -0.525648         0.450899
 H        -3.214076        -1.105484         0.677734
 H        -2.818439        -0.689835        -1.803298
 H        -2.805842         1.542073         1.762085
 H        -3.658607         1.987896         0.134512
 H        -5.608351         1.556530         1.395906
 H        -5.283978        -0.130873         0.680445
 H        -6.271877         0.270616         2.944071
