19
Iteration:  4037
 C         1.265831         0.682797        -0.077379
 C        -0.141175         0.218054         0.207199
 C        -1.251073        -0.127307         0.459794
 C        -2.764267        -0.185847         0.531779
 O        -3.363719        -0.449729        -0.754880
 C        -3.329905         1.154370         1.306803
 C        -4.827711         1.266054         1.260681
 C        -5.305914         0.558192         2.428445
 O        -4.662537        -0.075243         3.222848
 H         1.297083         1.759590         0.083077
 H         1.983777         0.307196         0.619650
 H         1.533913         0.543927        -1.117452
 H        -3.101603        -0.983630         1.219673
 H        -3.807749        -1.298756        -0.783393
 H        -2.829695         1.161920         2.254243
 H        -2.930685         1.916508         0.654131
 H        -5.022897         2.325330         1.405734
 H        -5.071940         0.902937         0.200661
 H        -6.373453         0.653529         2.742691
