19
Iteration:  4470charge 0 multiplicity 1
 C         1.287038         0.291870        -0.279555
 C        -0.171258         0.423927        -0.035897
 C        -1.252046         0.240030         0.523620
 C        -2.599449        -0.110904         0.645143
 O        -3.228937        -0.350141        -0.674917
 C        -3.263790         1.206858         1.209772
 C        -4.773261         1.379582         1.425697
 C        -5.440989         0.517923         2.570355
 O        -4.940925        -0.386742         3.175161
 H         1.635259         0.195686         0.743807
 H         1.614344        -0.572626        -0.953237
 H         1.677804         1.175547        -0.721194
 H        -2.882254        -0.972839         1.244823
 H        -3.072466        -1.269015        -0.859596
 H        -2.754359         1.255437         2.205528
 H        -2.863944         2.135572         0.766644
 H        -5.140704         2.339793         1.692505
 H        -5.406189         1.053508         0.558320
 H        -6.524956         0.747687         2.782448
