19
Iteration:   978charge 0 multiplicity 1
 C         1.501929        -0.285427        -0.398705
 C         0.087204         0.065691        -0.175068
 C        -1.177939         0.012586        -0.017171
 C        -2.653728         0.147714         0.173931
 O        -3.058173         1.353307        -0.581854
 C        -2.978269         0.239405         1.703748
 C        -4.486666         0.530163         1.695441
 C        -5.165408         0.344245         3.026180
 O        -6.372054         0.396353         3.123432
 H         1.968953        -0.745392         0.474092
 H         1.580596        -1.064141        -1.221971
 H         2.083988         0.617933        -0.648908
 H        -3.346394        -0.677143        -0.214677
 H        -2.488317         1.332435        -1.392361
 H        -2.687586        -0.769105         2.032322
 H        -2.358425         1.058149         2.058521
 H        -4.813295         1.526215         1.336624
 H        -5.037420        -0.121143         1.092556
 H        -4.591353        -0.042877         3.892846
