19
Iteration:  3470
 C         1.357621         0.009348        -0.417539
 C        -0.018110         0.158596         0.002466
 C        -1.206268         0.117284         0.149086
 C        -2.643143        -0.099041         0.144316
 O        -3.172154         1.036977        -0.591166
 C        -3.144415        -0.043447         1.733153
 C        -4.693392        -0.277061         1.685193
 C        -5.529738         0.305913         2.770688
 O        -5.355346         1.468191         3.085655
 H         1.474942        -0.721062        -1.233443
 H         1.883537         0.976505        -0.682812
 H         1.891518        -0.471543         0.437748
 H        -3.035313        -0.946277        -0.295664
 H        -2.487648         1.728083        -0.593339
 H        -2.504198        -0.688005         2.366401
 H        -3.002550         1.015116         2.039675
 H        -4.968437         0.292529         0.787462
 H        -4.889327        -1.288831         1.485375
 H        -6.410566        -0.254687         3.141960
