19
Iteration:   847
 C         1.322068        -0.264576        -0.173636
 C        -0.082048        -0.139202        -0.047283
 C        -1.276162        -0.225450        -0.079067
 C        -2.559665         0.271241         0.075889
 O        -2.827968         1.588387        -0.493105
 C        -3.157785         0.320074         1.483436
 C        -4.744905         0.325117         1.456499
 C        -5.253894         0.780234         2.768882
 O        -5.852064         0.009510         3.479976
 H         1.818694        -0.234729         0.738832
 H         1.705378        -1.133588        -0.768465
 H         1.708894         0.553129        -0.757388
 H        -3.191486        -0.376209        -0.420768
 H        -2.368080         1.880187        -1.286250
 H        -2.816483        -0.596492         1.991951
 H        -2.601156         0.928810         2.171653
 H        -4.993057         1.151696         0.634970
 H        -5.045162        -0.708956         1.351938
 H        -5.334552         1.904439         2.923935
