19
Iteration:  2831charge 0 multiplicity 1
 C         1.316591         0.115479        -0.157481
 C        -0.141744        -0.156756        -0.119175
 C        -1.317040        -0.146128         0.196859
 C        -2.731501        -0.039632         0.044680
 O        -2.897957         0.876012        -1.152082
 C        -3.309868         0.560825         1.339454
 C        -4.539214        -0.227558         1.877097
 C        -5.252795         0.289954         3.145613
 O        -5.605609         1.413306         3.457832
 H         1.730717         0.749306         0.671977
 H         1.973701        -0.880409        -0.222102
 H         1.590433         0.553589        -1.194928
 H        -3.234709        -1.021623        -0.237858
 H        -2.198448         0.690133        -1.831618
 H        -2.464193         0.633377         2.038083
 H        -3.522489         1.630202         1.142373
 H        -5.345013        -0.191065         1.189225
 H        -4.246615        -1.220384         1.982221
 H        -5.542052        -0.551312         3.817492
