19
Iteration:  3047
 C         1.231685         0.542199        -0.132200
 C        -0.217631         0.197178        -0.042567
 C        -1.369464        -0.153612         0.015050
 C        -2.801724        -0.236114         0.196773
 O        -3.315475         1.034104        -0.256196
 C        -3.251623        -0.611621         1.689536
 C        -4.770782        -0.589518         1.951678
 C        -5.287364         0.825343         2.156901
 O        -4.690313         1.645990         2.831934
 H         1.674526         0.239898         0.875066
 H         1.759758         0.030503        -0.901393
 H         1.410565         1.624690        -0.118178
 H        -3.182843        -1.220515        -0.208872
 H        -2.932343         1.052193        -1.138516
 H        -2.779255        -1.538759         2.045902
 H        -2.847236         0.227522         2.260095
 H        -5.341160        -1.280613         1.346888
 H        -4.699050        -0.945551         2.988005
 H        -6.368289         1.032031         1.781461
