19
Iteration:  1901
 C         1.344037        -0.109968         0.578349
 C        -0.136745        -0.092272         0.186497
 C        -1.326002         0.059210        -0.133670
 C        -2.793620         0.125690        -0.171695
 O        -3.143946         0.987181        -1.401775
 C        -3.405802         0.698011         1.236707
 C        -4.798304         0.157593         1.465505
 C        -5.446244         0.477126         2.839877
 O        -4.808206         0.489772         3.893617
 H         1.934758        -0.442822        -0.248265
 H         1.707609         0.939797         0.858267
 H         1.678461        -0.582279         1.481097
 H        -3.330822        -0.839981        -0.277809
 H        -2.424223         1.634044        -1.484780
 H        -2.778371         0.141093         1.941813
 H        -3.172913         1.778242         1.232536
 H        -5.428096         0.389449         0.574392
 H        -4.672375        -0.965273         1.387617
 H        -6.529466         0.281180         2.814517
