19
Iteration:   937charge 0 multiplicity 1
 C         1.493683        -0.357646        -0.442101
 C         0.062067        -0.061163         0.016748
 C        -1.151168         0.158876         0.068383
 C        -2.510163         0.211263         0.103841
 O        -3.073104         1.325669        -0.575977
 C        -3.050538         0.236063         1.503103
 C        -4.583807         0.498244         1.581446
 C        -5.175475         0.494304         2.984876
 O        -6.334715         0.242265         3.305026
 H         2.144788        -0.675595         0.405214
 H         1.448711        -1.050684        -1.226117
 H         1.854384         0.581418        -0.901757
 H        -2.757057        -0.759820        -0.384364
 H        -2.450048         1.752143        -1.141330
 H        -2.833524        -0.722105         1.979627
 H        -2.581486         0.911556         2.273880
 H        -4.698102         1.597403         1.220311
 H        -5.297908         0.009271         0.830786
 H        -4.367945         0.859697         3.665595
