19
Iteration:  1634
 C         1.368382         0.062889        -0.076596
 C        -0.020738        -0.001077         0.209110
 C        -1.242712        -0.010480         0.241556
 C        -2.628956         0.061386         0.095174
 O        -2.931278         1.131067        -0.956758
 C        -3.351816         0.328347         1.375797
 C        -4.987209         0.227151         1.333451
 C        -5.653514         0.589215         2.664397
 O        -5.060588         0.380500         3.732881
 H         1.818661        -0.841811        -0.652482
 H         1.572076         0.879292        -0.783492
 H         2.156174         0.092105         0.746249
 H        -2.963072        -0.760015        -0.482778
 H        -2.053993         1.235864        -1.314142
 H        -3.022543        -0.435979         2.173847
 H        -3.144262         1.394550         1.651459
 H        -5.282045         0.811837         0.411579
 H        -5.233768        -0.889106         1.118326
 H        -6.781792         0.987933         2.789157
