19
Iteration:   592
 C         1.315194        -0.411970         0.191954
 C        -0.132353        -0.274649         0.120888
 C        -1.296416        -0.071452        -0.177590
 C        -2.743785         0.392568        -0.187799
 O        -2.947081         1.633333        -0.912198
 C        -3.181296         0.670566         1.342695
 C        -4.759499         0.532344         1.483774
 C        -4.943839         0.487311         3.049063
 O        -5.758926        -0.232260         3.589705
 H         1.700318        -0.042565         1.164261
 H         1.516151        -1.450524         0.183988
 H         1.860478         0.015434        -0.640507
 H        -3.173489        -0.497982        -0.773291
 H        -2.387450         1.629227        -1.687584
 H        -2.604821        -0.138640         1.944937
 H        -3.017790         1.637681         1.728015
 H        -5.321278         1.386929         1.049823
 H        -5.142430        -0.333259         0.995013
 H        -4.258274         1.220446         3.495613
