19
Iteration:  3019charge 0 multiplicity 1
 C         1.320181         0.384001        -0.006804
 C        -0.134510         0.147291        -0.083581
 C        -1.339815        -0.024209         0.076600
 C        -2.760716        -0.180342         0.085822
 O        -3.649904         0.883167        -0.437074
 C        -3.134561        -0.368448         1.625111
 C        -4.689925        -0.540693         1.973727
 C        -5.274269         0.772475         2.238582
 O        -4.759027         1.593744         2.965867
 H         1.535347         0.067196         1.013599
 H         1.907510        -0.261058        -0.770443
 H         1.584850         1.451987        -0.212966
 H        -3.022068        -1.134916        -0.383902
 H        -3.041626         1.639149        -0.504553
 H        -2.433714        -1.109702         2.062848
 H        -2.794059         0.589844         2.093130
 H        -5.245586        -1.084301         1.078361
 H        -4.704276        -1.324963         2.807684
 H        -6.093895         1.036862         1.606701
