19
Iteration:  1036charge 0 multiplicity 1
 C         1.577778        -0.113622        -0.363015
 C         0.126189        -0.218052        -0.291517
 C        -1.091280        -0.163435        -0.132645
 C        -2.524201         0.179308         0.154482
 O        -3.046264         1.346860        -0.483866
 C        -3.023627         0.375809         1.610561
 C        -4.600829         0.547061         1.664867
 C        -5.270917         0.192585         3.017556
 O        -6.410763         0.527047         3.285878
 H         2.010070        -0.550255         0.600782
 H         1.923270        -0.534036        -1.262520
 H         1.892461         0.957236        -0.452740
 H        -3.201929        -0.655148        -0.290273
 H        -2.764306         1.545338        -1.391695
 H        -2.761950        -0.514307         2.207917
 H        -2.377018         1.060572         2.262185
 H        -4.992351         1.602893         1.268785
 H        -5.087844        -0.153666         0.953570
 H        -4.690578        -0.580618         3.526638
