19
Iteration:  3972charge 0 multiplicity 1
 C         1.291763         0.387479         0.385577
 C        -0.113144         0.264176         0.106791
 C        -1.356398         0.188019         0.152313
 C        -2.793030         0.025721         0.338451
 O        -3.538368        -0.608822        -0.564978
 C        -3.379593         1.389221         0.782467
 C        -4.849921         1.289211         1.259507
 C        -5.213802         0.380000         2.597135
 O        -4.464963        -0.190249         3.367760
 H         1.611903         1.451285         0.410289
 H         1.474390         0.032947         1.399749
 H         1.971388        -0.136568        -0.327338
 H        -2.864255        -0.573755         1.327621
 H        -2.993423        -0.748729        -1.381847
 H        -2.682817         1.706936         1.537279
 H        -3.318383         2.255466         0.119306
 H        -5.232356         2.272948         1.602979
 H        -5.594703         0.860454         0.434116
 H        -6.344979         0.258275         2.741664
