19
Iteration:  4636charge 0 multiplicity 1
 C         1.219995         0.199574         0.387615
 C        -0.149955         0.171562         0.221767
 C        -1.315392         0.346745        -0.048135
 C        -2.712186         0.084577         0.087362
 O        -3.467380        -0.228700        -1.053948
 C        -3.340122         1.198914         0.899271
 C        -4.745255         0.861098         1.407821
 C        -5.227778         0.322310         2.761187
 O        -4.661529         0.113840         3.833957
 H         1.392511        -0.626873         1.114824
 H         1.747395         0.169449        -0.569555
 H         1.569364         1.136251         0.910009
 H        -2.662648        -0.688772         0.837875
 H        -2.944136        -0.090943        -1.844137
 H        -2.685010         1.310064         1.845916
 H        -3.163640         2.224330         0.461259
 H        -5.412958         1.697111         1.138997
 H        -5.184261         0.132627         0.598240
 H        -6.345668         0.061849         2.604049
