19
Iteration:  1400charge 0 multiplicity 1
 C         1.442809         0.030078         0.092727
 C        -0.071033        -0.060700         0.037744
 C        -1.305272        -0.084755        -0.170198
 C        -2.690044         0.204609        -0.198102
 O        -2.903462         1.441245        -0.705469
 C        -3.194546        -0.074358         1.265883
 C        -4.813240         0.029036         1.499950
 C        -5.139033         0.126415         2.997806
 O        -5.745634         1.015541         3.546223
 H         1.815626        -0.958615         0.294742
 H         1.764111         0.395214        -0.997360
 H         1.873478         0.671434         0.868970
 H        -3.396797        -0.400108        -0.908294
 H        -2.383460         2.066585        -0.088081
 H        -3.018558        -1.139658         1.478762
 H        -2.813665         0.618685         2.011756
 H        -5.389902         0.905632         1.170896
 H        -5.163472        -0.922114         0.953713
 H        -4.681308        -0.812133         3.625058
