19
Iteration:   944charge 0 multiplicity 1
 C         1.409103        -0.344465        -0.422236
 C         0.051864         0.015024         0.020040
 C        -1.113769         0.106883         0.071149
 C        -2.515420         0.219666         0.059728
 O        -3.073218         1.303794        -0.540992
 C        -2.998830         0.235174         1.474786
 C        -4.595842         0.518666         1.586185
 C        -5.158304         0.462715         2.988231
 O        -6.323124         0.276303         3.250847
 H         2.083610        -0.670202         0.323581
 H         1.409252        -1.123591        -1.302321
 H         1.906134         0.529570        -0.856198
 H        -2.934352        -0.888235        -0.137898
 H        -2.369945         1.636190        -1.104289
 H        -2.769289        -0.745179         1.973974
 H        -2.627282         0.916791         2.231086
 H        -4.775461         1.600732         1.518392
 H        -5.126729        -0.094143         0.978242
 H        -4.447228         0.746472         3.859650
