19
Iteration:  4336charge 0 multiplicity 1
 C         1.065292         0.318287        -0.530844
 C        -0.077796         0.318336         0.270350
 C        -1.212813         0.290900         0.662522
 C        -2.630894        -0.100322         0.943810
 O        -3.602793        -0.461428        -0.139691
 C        -3.191888         1.349648         1.210239
 C        -4.742794         1.654436         1.508905
 C        -5.305555         0.250227         1.969788
 O        -4.690405        -0.404938         2.770418
 H         1.911999         0.564484         0.135324
 H         1.308284        -0.656656        -0.965855
 H         1.245596         1.119456        -1.274337
 H        -2.682910        -0.906141         1.719522
 H        -3.339294        -1.389408        -0.259178
 H        -2.571229         1.655799         2.056453
 H        -2.853351         1.888268         0.331788
 H        -4.869545         2.425297         2.191413
 H        -5.335918         1.968816         0.569780
 H        -5.971184        -0.101439         1.174257
