19
Iteration:  2777charge 0 multiplicity 1
 C         1.401895        -0.135064        -0.308863
 C         0.030565        -0.063603         0.152582
 C        -1.181617        -0.020961         0.166741
 C        -2.637897         0.126922         0.124769
 O        -3.048328         0.644482        -1.151675
 C        -3.506210         0.801694         1.249971
 C        -4.588537        -0.044463         1.793355
 C        -5.233896         0.182920         3.098260
 O        -5.594329         1.251146         3.520533
 H         2.006581         0.575197         0.309357
 H         2.008044        -1.127804        -0.284208
 H         1.553330         0.089465        -1.407302
 H        -2.989055        -0.954573        -0.031022
 H        -2.949727         1.634737        -1.230454
 H        -2.757362         0.979966         2.052738
 H        -3.834351         1.808159         0.912962
 H        -5.478753         0.033471         1.151760
 H        -4.291669        -1.081537         1.686024
 H        -5.414541        -0.693331         3.791829
