19
Iteration:  1606
 C         1.462347        -0.037666        -0.228365
 C         0.040558        -0.088436         0.047253
 C        -1.173401         0.068626         0.372041
 C        -2.605258         0.122529         0.262022
 O        -2.950917         1.063517        -0.902673
 C        -3.457456         0.504062         1.513762
 C        -4.941755         0.242976         1.263693
 C        -5.684234         0.348397         2.621390
 O        -5.139261         0.487433         3.661627
 H         1.840840        -0.850821        -0.753709
 H         1.602459         0.767549        -0.993128
 H         2.126961         0.132612         0.563716
 H        -2.949391        -0.780432        -0.385324
 H        -2.392785         1.854513        -0.726687
 H        -3.169102        -0.155377         2.316579
 H        -3.170885         1.473819         1.943952
 H        -5.357653         0.960454         0.592765
 H        -4.995873        -0.708806         0.753773
 H        -6.783774         0.311174         2.512189
