19
Iteration:  1457charge 0 multiplicity 1
 C         1.474776        -0.142240        -0.174810
 C         0.062464        -0.055235        -0.009228
 C        -1.176131         0.068938         0.064931
 C        -2.598017         0.153538         0.133676
 O        -3.057694         1.356885        -0.591620
 C        -3.265752         0.309499         1.455059
 C        -4.797664         0.212678         1.360851
 C        -5.273374        -0.001322         2.765621
 O        -5.700446         0.849691         3.507301
 H         1.823968        -1.222098        -0.134269
 H         1.914095         0.301592        -1.119923
 H         1.947581         0.439587         0.669112
 H        -3.151113        -0.778893        -0.291143
 H        -3.074107         1.166180        -1.532414
 H        -2.961736        -0.556424         2.189720
 H        -2.932683         1.265295         1.986569
 H        -5.286945         1.113771         0.962689
 H        -5.036948        -0.645625         0.684892
 H        -5.248584        -1.161671         2.967993
