19
Iteration:  1468charge 0 multiplicity 1
 C         1.544358        -0.179944        -0.169104
 C         0.065461         0.022929        -0.083022
 C        -1.144678         0.067538         0.058574
 C        -2.597075         0.181402         0.153637
 O        -3.061240         1.335335        -0.647850
 C        -3.265329         0.303405         1.598245
 C        -4.818857         0.269142         1.369147
 C        -5.370070        -0.031458         2.732008
 O        -5.708641         0.809353         3.521363
 H         1.740479        -1.314410        -0.177315
 H         1.827601         0.212598        -1.205958
 H         2.236565         0.227616         0.642892
 H        -2.807990        -0.829149        -0.428112
 H        -3.221860         1.032489        -1.549246
 H        -2.722792        -0.395969         2.389045
 H        -3.001328         1.420960         1.832316
 H        -5.077755         1.226660         0.886150
 H        -5.115633        -0.632218         0.761836
 H        -5.528534        -1.083092         3.145675
