19
Iteration:   178
 C         1.344853        -0.000742         0.116364
 C        -0.072958         0.010998        -0.108754
 C        -1.251651        -0.057182        -0.219958
 C        -2.656708         0.159922        -0.171018
 O        -2.999824         1.516662        -0.606274
 C        -3.165161        -0.261057         1.321314
 C        -4.685328        -0.099252         1.671299
 C        -4.917415         0.691313         2.887432
 O        -6.003488         0.646139         3.437270
 H         1.660901         0.464534         1.069946
 H         1.724689        -0.944548         0.094248
 H         1.840110         0.579024        -0.671073
 H        -3.222307        -0.489931        -0.797384
 H        -2.311920         2.138051        -0.351387
 H        -2.724765        -1.242516         1.545144
 H        -2.534429         0.489719         1.918392
 H        -5.083819         0.493593         0.926863
 H        -5.274009        -1.039901         1.807784
 H        -4.206986         1.382268         3.369648
