19
Iteration:  3096
 C         1.011578         0.769275        -0.306404
 C        -0.108765         0.004336        -0.012489
 C        -1.270423        -0.356001         0.179861
 C        -2.696554        -0.345349         0.242954
 O        -3.274828         1.087043         0.293693
 C        -3.276895        -0.846573         1.638856
 C        -4.773010        -0.541537         1.750258
 C        -5.252700         0.871772         2.125990
 O        -4.684725         1.854344         2.552947
 H         1.850970         0.607417         0.270670
 H         1.242396         0.555309        -1.366964
 H         0.704151         1.785598        -0.155081
 H        -3.160558        -0.904579        -0.584083
 H        -3.412900         1.069215        -0.684457
 H        -2.765272        -1.796109         1.808712
 H        -2.716894        -0.136228         2.267770
 H        -5.278158        -0.986403         0.798993
 H        -5.242640        -0.987294         2.728596
 H        -6.453552         0.847000         2.121796
