19
Iteration:   520charge 0 multiplicity 1
 C         1.407765        -0.510710        -0.107933
 C         0.001062        -0.093365        -0.048924
 C        -1.170745         0.115168         0.009764
 C        -2.628089         0.381886         0.046888
 O        -3.108262         1.365809        -0.873062
 C        -3.078524         0.553399         1.564037
 C        -4.618000         0.729709         1.638424
 C        -5.242347         0.648516         2.971120
 O        -5.892728        -0.305281         3.367393
 H         1.959896        -0.178231         0.756897
 H         1.495779        -1.686889        -0.140009
 H         1.902138        -0.187893        -1.028679
 H        -3.108267        -0.509493        -0.314901
 H        -2.594322         1.308313        -1.699992
 H        -2.770292        -0.355838         2.001953
 H        -2.773824         1.367621         2.326151
 H        -5.074029         1.624511         1.089294
 H        -5.037079        -0.143931         0.910069
 H        -5.068939         1.637511         3.483406
