19
Iteration:  1357
 C         1.291488         0.027148         0.294884
 C        -0.017321         0.001327        -0.201893
 C        -1.219687        -0.079018        -0.283338
 C        -2.762976         0.093169        -0.188824
 O        -3.059109         1.495389        -0.531291
 C        -3.155088        -0.215957         1.185904
 C        -4.737970         0.052471         1.502030
 C        -4.991395         0.216729         3.011044
 O        -5.718022         1.039347         3.457006
 H         1.393745        -0.942995         0.754707
 H         2.203423         0.229195        -0.389024
 H         1.342951         0.684892         1.171687
 H        -3.277105        -0.651938        -0.833445
 H        -2.675392         1.996290         0.234715
 H        -3.120461        -1.307268         1.032313
 H        -2.476625         0.342673         1.803647
 H        -4.894335         0.972027         1.001707
 H        -5.456150        -0.613127         1.135388
 H        -4.515687        -0.634960         3.604581
