19
Iteration:  1148
 C         1.612120        -0.168324        -0.227990
 C         0.112794        -0.064766        -0.269549
 C        -1.053034         0.019758         0.007145
 C        -2.613831         0.214068         0.122543
 O        -2.990771         1.352898        -0.743452
 C        -3.187308         0.192425         1.511963
 C        -4.798797         0.287575         1.516312
 C        -5.407031         0.008422         2.903070
 O        -6.016400         0.800621         3.570793
 H         1.897084        -0.867873         0.549506
 H         2.069801        -0.439156        -1.203217
 H         2.012157         0.796809         0.048623
 H        -2.995017        -0.617218        -0.384927
 H        -2.754690         2.121518        -0.236967
 H        -2.879832        -0.683959         2.174974
 H        -2.780217         1.121154         1.977873
 H        -5.033459         1.274383         1.122243
 H        -5.232266        -0.294378         0.688725
 H        -5.200365        -0.971742         3.437190
