19
Iteration:  3442
 C         1.424995        -0.052908        -0.341419
 C         0.055344        -0.031552         0.154426
 C        -1.166521         0.078421         0.037135
 C        -2.650353         0.143336         0.058004
 O        -3.442597         1.109770        -0.452530
 C        -3.110587         0.036977         1.573372
 C        -4.603463        -0.383676         1.694556
 C        -5.354613         0.320940         2.747403
 O        -5.432036         1.499548         3.034779
 H         1.614074        -0.852431        -1.077883
 H         1.743213         0.896456        -0.659863
 H         1.958688        -0.361072         0.575956
 H        -3.258716        -0.806595        -0.342802
 H        -3.010524         1.892385        -0.828811
 H        -2.364378        -0.664761         1.992208
 H        -3.026501         0.973995         2.129070
 H        -5.087024        -0.524160         0.689339
 H        -4.655240        -1.527526         1.969165
 H        -6.078806        -0.322098         3.328489
