19
Iteration:  3331
 C         1.273627        -0.084795         0.124920
 C        -0.168593        -0.171417         0.072739
 C        -1.309590         0.166010        -0.242066
 C        -2.905643         0.217696        -0.007665
 O        -3.534423         1.336045        -0.566854
 C        -2.999368        -0.013461         1.494013
 C        -4.247877        -0.569656         1.999178
 C        -5.356378         0.345319         2.450663
 O        -5.108792         1.420226         2.981006
 H         1.826447        -1.027862         0.075459
 H         1.431882         0.556301        -0.673760
 H         1.708309         0.271663         1.057997
 H        -3.593733        -0.557812        -0.583995
 H        -3.529145         2.157165        -0.055233
 H        -2.215057        -0.731947         1.761600
 H        -2.823160         0.922679         2.033312
 H        -4.598170        -1.489377         1.462001
 H        -4.048048        -0.865171         3.134557
 H        -6.320331        -0.220563         2.608882
