19
Iteration:  3212
 C         1.283062         0.357863        -0.493806
 C         0.019512         0.017192         0.128670
 C        -1.190238         0.141195         0.296569
 C        -2.714949        -0.061660         0.311107
 O        -3.558304         1.050296        -0.103934
 C        -3.195362        -0.609031         1.736857
 C        -4.755456        -0.555931         1.745116
 C        -5.419311         0.702309         2.176484
 O        -4.806411         1.606888         2.708972
 H         1.998979        -0.563145        -0.295242
 H         1.069999         0.628727        -1.541528
 H         1.684683         1.268604         0.050801
 H        -2.889477        -0.845980        -0.352861
 H        -3.058921         1.839227         0.231814
 H        -3.014179        -1.706874         1.782729
 H        -2.703515        -0.142570         2.591905
 H        -5.070370        -0.908861         0.820303
 H        -5.079139        -1.189784         2.547113
 H        -6.434488         0.990272         1.845956
