19
Iteration:  3055
 C         1.118134         0.604733        -0.151986
 C        -0.221208         0.171699        -0.011027
 C        -1.375921        -0.201796         0.021021
 C        -2.772115        -0.255883         0.247739
 O        -3.238040         1.061201        -0.205101
 C        -3.156283        -0.695684         1.691373
 C        -4.778092        -0.530881         1.959943
 C        -5.330633         0.828101         2.143301
 O        -4.690897         1.655091         2.768476
 H         1.789149         0.205352         0.736202
 H         1.607402         0.043443        -1.031302
 H         1.375238         1.723532        -0.209598
 H        -3.206973        -1.065213        -0.412906
 H        -3.193774         1.102324        -1.165137
 H        -2.900791        -1.734808         1.972220
 H        -2.699881         0.017584         2.394755
 H        -5.430650        -1.047653         1.321467
 H        -4.947624        -0.952002         2.927722
 H        -6.330880         0.992573         1.816476
