19
Iteration:   971
 C         1.527226        -0.318947        -0.421640
 C        -0.009689         0.129177        -0.089380
 C        -1.184735         0.015214         0.014618
 C        -2.641688         0.112348         0.111689
 O        -3.066868         1.395091        -0.594769
 C        -2.996279         0.194728         1.663481
 C        -4.489861         0.557874         1.698615
 C        -5.136746         0.398775         3.012683
 O        -6.346686         0.359104         3.124364
 H         2.167513        -0.838506         0.371828
 H         1.520079        -1.039553        -1.169423
 H         2.247274         0.449298        -0.785394
 H        -3.127551        -0.920162        -0.108296
 H        -2.444333         1.345356        -1.310609
 H        -2.777080        -0.708034         2.249452
 H        -2.637657         1.171233         2.154255
 H        -4.627339         1.622603         1.312075
 H        -4.978412        -0.389501         1.159201
 H        -4.594600        -0.064384         3.944084
