19
Iteration:   865
 C         1.425399        -0.284026        -0.225297
 C         0.011869        -0.056339        -0.150227
 C        -1.229390        -0.083190        -0.074278
 C        -2.747315         0.226412         0.084848
 O        -2.787707         1.533718        -0.512310
 C        -3.136923         0.216857         1.536048
 C        -4.671828         0.394790         1.506171
 C        -5.342110         0.782524         2.804907
 O        -5.979215         0.013141         3.497250
 H         1.811462        -0.412805         0.817177
 H         1.547107        -1.261978        -0.790673
 H         1.964290         0.503620        -0.776366
 H        -3.404445        -0.611008        -0.409870
 H        -2.118368         1.477421        -1.196594
 H        -2.803055        -0.617424         2.243106
 H        -2.731872         1.133906         1.994778
 H        -4.831317         1.162065         0.748251
 H        -4.951935        -0.560641         0.985990
 H        -4.959546         1.821063         3.025635
