19
Iteration:  2628charge 0 multiplicity 1
 C         1.332230         0.260834         0.121402
 C        -0.110427         0.061782        -0.003720
 C        -1.325190        -0.115176        -0.039794
 C        -2.785682        -0.159553        -0.060402
 O        -3.391432         0.898889        -0.901456
 C        -3.128959         0.048477         1.461928
 C        -4.641113        -0.284789         1.732174
 C        -5.405938         0.716662         2.540080
 O        -4.948204         1.242827         3.548735
 H         1.686865         1.309955         0.412008
 H         1.779674        -0.365140         0.923990
 H         1.956971         0.110292        -0.821499
 H        -3.262918        -1.095968        -0.412519
 H        -3.223096         1.757606        -0.416389
 H        -2.524302        -0.717434         2.025108
 H        -2.917828         1.114540         1.578855
 H        -5.164127        -0.383176         0.821225
 H        -4.642857        -1.255380         2.176809
 H        -6.482604         0.685914         2.502320
