19
Iteration:  1230charge 0 multiplicity 1
 C         1.463674        -0.146362         0.093312
 C         0.000429        -0.060669        -0.055907
 C        -1.229936         0.114110        -0.030340
 C        -2.683947         0.294767        -0.147728
 O        -3.165791         1.502476        -0.512762
 C        -3.230704        -0.026569         1.284837
 C        -4.767561        -0.109280         1.408424
 C        -5.078259         0.071362         2.948860
 O        -5.707655         1.019162         3.424643
 H         1.680711        -1.060450         0.711894
 H         1.995152        -0.304590        -0.815953
 H         1.847356         0.767704         0.599581
 H        -2.847266        -0.680245        -0.725771
 H        -2.951066         1.820112        -1.400701
 H        -2.705628        -0.894929         1.651435
 H        -2.783405         0.757668         1.928592
 H        -5.127616         0.919178         1.195126
 H        -5.419659        -0.880099         0.876180
 H        -4.429526        -0.656054         3.550917
