19
Iteration:  3057
 C         1.108629         0.612390        -0.155720
 C        -0.228425         0.166732        -0.005281
 C        -1.360602        -0.210549         0.025390
 C        -2.773006        -0.271026         0.256513
 O        -3.227438         1.064071        -0.190803
 C        -3.149586        -0.696656         1.692947
 C        -4.769253        -0.527883         1.961664
 C        -5.331590         0.831250         2.145609
 O        -4.692800         1.659981         2.754532
 H         1.783720         0.200815         0.709162
 H         1.549357         0.108470        -1.037224
 H         1.315036         1.712005        -0.260338
 H        -3.235031        -0.991664        -0.509497
 H        -3.246547         1.101855        -1.152289
 H        -2.905678        -1.749323         1.905781
 H        -2.662795        -0.057926         2.443764
 H        -5.424646        -1.005128         1.301183
 H        -5.024260        -0.972157         2.898959
 H        -6.372400         1.006024         1.797424
