19
Iteration:   470charge 0 multiplicity 1
 C         1.417504        -0.470436        -0.345963
 C         0.055627        -0.115136        -0.077473
 C        -1.133624         0.182165         0.068286
 C        -2.545158         0.210421         0.274389
 O        -3.114300         1.206551        -0.701253
 C        -3.067864         0.575778         1.633157
 C        -4.631300         0.754553         1.470044
 C        -5.293370         0.724820         2.903205
 O        -5.979967        -0.248354         3.264126
 H         2.108058        -0.073415         0.441896
 H         1.567328        -1.496071        -0.424096
 H         1.731057        -0.058711        -1.338204
 H        -3.088405        -0.672280        -0.185063
 H        -2.988711         2.122592        -0.437297
 H        -2.989608        -0.290117         2.437372
 H        -2.613046         1.397641         2.172410
 H        -4.965017         1.636414         0.961593
 H        -4.969850        -0.077466         0.914222
 H        -4.937470         1.563851         3.513772
