19
Iteration:  3023
 C         1.303598         0.417194        -0.014543
 C        -0.122639         0.161999        -0.115717
 C        -1.332038        -0.058965         0.096076
 C        -2.794267        -0.190747         0.086329
 O        -3.601689         0.903567        -0.396967
 C        -3.151865        -0.364942         1.604088
 C        -4.734646        -0.582893         2.023416
 C        -5.275755         0.770913         2.233195
 O        -4.737791         1.593461         2.933492
 H         1.716220         0.095409         1.038113
 H         1.812557        -0.230775        -0.770390
 H         1.628928         1.484736        -0.176403
 H        -3.045840        -1.170516        -0.331076
 H        -2.957865         1.601389        -0.645488
 H        -2.552417        -1.185437         2.043070
 H        -2.770431         0.565181         2.009047
 H        -5.205249        -0.929336         1.181466
 H        -4.817526        -1.292530         2.774786
 H        -6.098234         1.059712         1.504220
