19
Iteration:  1538
 C         1.476079        -0.289636        -0.327344
 C         0.126683         0.023649         0.010241
 C        -1.017251         0.303681         0.190653
 C        -2.534444         0.272336         0.227731
 O        -3.124218         1.010371        -0.794584
 C        -3.205080         0.484958         1.589616
 C        -4.691879         0.363927         1.451011
 C        -5.623394         0.027170         2.578742
 O        -5.707472         0.640393         3.653208
 H         1.560427        -1.309776        -0.733620
 H         1.592237         0.295233        -1.247175
 H         2.340436        -0.084700         0.301023
 H        -2.830309        -0.842911         0.098428
 H        -2.615056         1.733329        -1.162646
 H        -2.914606        -0.276901         2.411720
 H        -2.793356         1.443462         2.009184
 H        -5.191002         1.221901         0.974400
 H        -4.734196        -0.404426         0.739488
 H        -6.497748        -0.659911         2.413964
