19
Iteration:  3436charge 0 multiplicity 1
 C         1.470956        -0.083279        -0.289522
 C         0.015166        -0.085361         0.111829
 C        -1.168982         0.088161         0.011365
 C        -2.676973         0.178915         0.034634
 O        -3.495877         1.152352        -0.456557
 C        -3.082780         0.070716         1.589076
 C        -4.568034        -0.436655         1.708395
 C        -5.392207         0.301260         2.788094
 O        -5.405650         1.492832         2.985504
 H         1.700206        -0.852974        -1.026044
 H         1.872883         0.941455        -0.659241
 H         1.986440        -0.227736         0.675345
 H        -2.863734        -0.720567        -0.507114
 H        -3.157735         1.948335        -0.884764
 H        -2.515133        -0.726810         2.091226
 H        -2.965718         0.991176         2.198712
 H        -5.079485        -0.531517         0.759077
 H        -4.730115        -1.364660         2.208582
 H        -6.013850        -0.394956         3.402992
