19
Iteration:   962charge 0 multiplicity 1
 C         1.478592        -0.337730        -0.439713
 C         0.059747         0.141160        -0.000840
 C        -1.199520         0.024047         0.043686
 C        -2.602459         0.097542         0.117249
 O        -3.070428         1.367142        -0.584049
 C        -3.061921         0.232027         1.584485
 C        -4.477795         0.539499         1.692484
 C        -5.124540         0.400931         3.041771
 O        -6.334595         0.330450         3.135831
 H         1.933635        -0.798488         0.465012
 H         1.239152        -1.058855        -1.231820
 H         2.083197         0.444626        -0.912653
 H        -2.919057        -0.734938        -0.457051
 H        -2.461842         1.577756        -1.284852
 H        -2.802551        -0.591973         2.287592
 H        -2.392765         0.992009         2.099408
 H        -4.633250         1.442660         1.102409
 H        -5.140088        -0.148277         0.987363
 H        -4.340143         0.303345         3.825024
