19
Iteration:  1807
 C         1.229661         0.181593         0.796282
 C        -0.237628        -0.063099         0.321404
 C        -1.418734        -0.019353         0.017458
 C        -2.828458        -0.034695        -0.292691
 O        -3.192958         0.833378        -1.372447
 C        -3.498200         0.319730         1.058226
 C        -4.935956         0.698609         1.362120
 C        -5.251925         0.603983         2.881351
 O        -4.391902         0.253734         3.668950
 H         1.998079        -0.318974         0.126331
 H         1.506641         1.187111         0.908160
 H         1.477185        -0.013232         1.874810
 H        -3.140972        -1.046316        -0.664556
 H        -2.685907         1.670473        -1.144571
 H        -3.363022        -0.714452         1.533583
 H        -2.731444         0.942923         1.567114
 H        -5.412232         1.670228         1.222450
 H        -5.682379         0.038666         1.005632
 H        -6.300591         0.679742         3.252089
