19
Iteration:  2908charge 0 multiplicity 1
 C         1.302293        -0.011097         0.096720
 C        -0.103202         0.046290        -0.075366
 C        -1.298669         0.182519        -0.106089
 C        -2.811396        -0.006224         0.140455
 O        -3.468519         0.866111        -0.857127
 C        -3.272301         0.241912         1.532528
 C        -4.446964        -0.471603         1.940419
 C        -5.263050         0.373944         2.827588
 O        -5.048098         1.541712         3.036793
 H         1.610530         0.328913         1.087807
 H         1.811070        -1.022624        -0.060400
 H         1.747331         0.797216        -0.536983
 H        -3.064233        -0.991142        -0.236471
 H        -2.860184         0.943133        -1.613094
 H        -2.376937        -0.206831         1.983904
 H        -3.368321         1.307101         1.805449
 H        -5.162723        -0.572349         1.108562
 H        -4.165914        -1.400583         2.271670
 H        -6.202605        -0.190155         3.197747
