19
Iteration:   473
 C         1.407032        -0.482025        -0.328824
 C         0.048677        -0.097513        -0.063833
 C        -1.110873         0.189999         0.043984
 C        -2.542861         0.203210         0.240111
 O        -3.124197         1.205355        -0.693110
 C        -3.093467         0.580832         1.637864
 C        -4.628562         0.739181         1.522881
 C        -5.299023         0.705064         2.877741
 O        -5.962996        -0.239741         3.262302
 H         2.145212        -0.074777         0.459135
 H         1.605648        -1.578133        -0.448972
 H         1.682161        -0.054797        -1.334130
 H        -3.058012        -0.661459        -0.147344
 H        -2.882270         2.126027        -0.393682
 H        -2.999598        -0.270892         2.438902
 H        -2.450036         1.486225         2.040762
 H        -4.958239         1.607482         0.950128
 H        -5.134221         0.018476         0.811518
 H        -4.959658         1.615593         3.528958
