19
Iteration:   800charge 0 multiplicity 1
 C         1.337193        -0.297614        -0.024377
 C        -0.060024        -0.325799        -0.041294
 C        -1.191856        -0.002499        -0.038834
 C        -2.574994         0.302650        -0.042163
 O        -2.820670         1.667532        -0.496242
 C        -3.346530         0.296775         1.308433
 C        -4.898596         0.297814         1.287671
 C        -5.292565         0.729438         2.744113
 O        -5.601989         0.016747         3.704543
 H         1.746604        -0.205162         1.007809
 H         1.807292        -1.201041        -0.479779
 H         1.753797         0.491326        -0.653854
 H        -3.024290        -0.297331        -0.805877
 H        -2.596180         1.602903        -1.472242
 H        -3.016342        -0.648810         1.917583
 H        -2.861990         0.966342         2.001543
 H        -5.405573         1.100297         0.624865
 H        -5.373200        -0.722136         1.340234
 H        -4.955774         1.705216         3.054910
