19
Iteration:  1448
 C         1.439751        -0.105047        -0.157194
 C         0.029593        -0.117868         0.022112
 C        -1.150845         0.047734         0.102830
 C        -2.679309         0.172456         0.028739
 O        -3.053999         1.356290        -0.549631
 C        -3.246710         0.300702         1.408731
 C        -4.752612         0.197798         1.346008
 C        -5.271511        -0.017895         2.766999
 O        -5.678336         0.877771         3.501990
 H         1.952283        -1.105466         0.017225
 H         1.625593         0.414506        -1.068993
 H         1.820705         0.504727         0.716776
 H        -3.185533        -0.675725        -0.500872
 H        -2.766210         1.242169        -1.461651
 H        -2.941852        -0.774370         1.800767
 H        -3.052269         1.218435         2.048545
 H        -5.306258         1.084660         0.997951
 H        -5.061868        -0.639072         0.803243
 H        -4.810213        -0.974412         3.375980
