19
Iteration:   561
 C         1.383894        -0.421871         0.085552
 C        -0.044395        -0.280006        -0.069510
 C        -1.227325        -0.020699        -0.007239
 C        -2.687221         0.362397        -0.107358
 O        -2.980297         1.536083        -0.783029
 C        -3.226978         0.714529         1.314428
 C        -4.762678         0.635669         1.454109
 C        -5.024826         0.519330         3.017369
 O        -5.819249        -0.272306         3.521195
 H         1.669688         0.007483         1.076270
 H         1.562676        -1.574626         0.144158
 H         2.025646        -0.012281        -0.701965
 H        -3.189936        -0.682904        -0.444063
 H        -3.023765         1.362112        -1.760785
 H        -2.799005        -0.032521         2.115898
 H        -2.669036         1.695470         1.671725
 H        -5.127565         1.629107         1.247026
 H        -5.122959        -0.305426         1.088235
 H        -4.486335         1.319628         3.677119
