19
Iteration:   670
 C         1.222382        -0.571589         0.423277
 C        -0.097237        -0.173311        -0.048816
 C        -1.212392         0.196631        -0.325081
 C        -2.700183         0.377971        -0.179393
 O        -3.087769         1.611911        -0.886605
 C        -3.169642         0.397712         1.231605
 C        -4.699697         0.444085         1.425855
 C        -5.049466         0.589187         2.941515
 O        -5.597859        -0.167422         3.712155
 H         1.424425        -0.306309         1.449016
 H         1.336977        -1.675435         0.370744
 H         2.007531        -0.104461        -0.131443
 H        -3.008415        -0.415101        -0.949161
 H        -2.736747         2.286720        -0.279653
 H        -2.513359        -0.283238         1.896205
 H        -3.052748         1.440929         1.576391
 H        -5.166256         1.316919         0.896582
 H        -5.354479        -0.305497         1.041474
 H        -4.515101         1.546106         3.458752
