19
Iteration:  2719
 C         1.337518        -0.370741        -0.077251
 C         0.027993         0.267505        -0.073961
 C        -1.199090         0.407048        -0.033226
 C        -2.647347         0.137585         0.170044
 O        -3.310512         0.595521        -1.002640
 C        -3.319512         0.659847         1.466550
 C        -4.637678        -0.172438         1.675457
 C        -5.329193         0.132976         2.990779
 O        -5.304583         1.287924         3.370884
 H         2.065031         0.283751         0.550449
 H         1.200993        -1.256763         0.680616
 H         1.912964        -0.537516        -1.001786
 H        -2.736714        -0.982330         0.032378
 H        -2.836327         1.376793        -1.304270
 H        -2.704906         0.168980         2.232348
 H        -3.291426         1.754883         1.508062
 H        -5.392780         0.025940         0.971683
 H        -4.444175        -1.180721         1.611934
 H        -5.742665        -0.749956         3.567795
