19
Iteration:  2381
 C         1.012845         0.430719         0.663630
 C        -0.317492         0.250468         0.047683
 C        -1.507316         0.080617        -0.246946
 C        -2.963234        -0.075473        -0.095547
 O        -3.663880         1.060857        -0.414160
 C        -3.257258        -0.830433         1.334160
 C        -4.772122        -0.589938         1.835188
 C        -4.868404         0.885080         2.193475
 O        -4.133768         1.454342         2.983111
 H         1.511481         1.349918         0.368833
 H         0.943989         0.385360         1.861455
 H         1.720039        -0.389287         0.427422
 H        -3.220173        -0.626772        -1.046768
 H        -3.232591         1.868136        -0.010336
 H        -3.332709        -1.966448         1.374165
 H        -2.499281        -0.601954         2.142722
 H        -5.494947        -0.657320         0.963841
 H        -5.093604        -1.198585         2.648763
 H        -5.455774         1.564455         1.541761
