19
Iteration:   549
 C         1.334793        -0.462095         0.040247
 C        -0.093045        -0.231969        -0.107432
 C        -1.205990         0.143551        -0.015782
 C        -2.602061         0.297704        -0.049240
 O        -2.945914         1.451463        -0.814994
 C        -3.171802         0.645119         1.437860
 C        -4.717841         0.690796         1.553302
 C        -5.119361         0.563767         2.973994
 O        -5.831938        -0.287904         3.477792
 H         1.716083         0.011182         0.989131
 H         1.625553        -1.540706         0.090638
 H         1.885480        -0.009447        -0.799763
 H        -3.307291        -0.571481        -0.468414
 H        -3.037633         1.326170        -1.757080
 H        -2.784547        -0.204389         2.163386
 H        -2.726998         1.669452         1.635208
 H        -5.240535         1.449014         1.006585
 H        -5.200560        -0.083513         1.017040
 H        -4.603960         1.311816         3.698290
