19
Iteration:  4730charge 0 multiplicity 1
 C         1.204733         0.152936         0.281164
 C        -0.226423         0.198797         0.502859
 C        -1.416365         0.116750         0.378241
 C        -2.901330         0.073344         0.129563
 O        -3.195872         0.044282        -1.209631
 C        -3.610169         1.089538         0.913872
 C        -4.999150         0.717217         1.335934
 C        -5.165905         0.312820         2.783677
 O        -4.203853         0.336094         3.532876
 H         1.783759        -0.769940         0.235030
 H         1.462607         0.798421        -0.639709
 H         1.693750         0.761532         1.018462
 H        -3.293081        -0.915573         0.439632
 H        -2.916021        -0.835819        -1.588012
 H        -3.183138         1.112167         1.924603
 H        -3.504135         2.137934         0.670828
 H        -5.702625         1.578102         1.227965
 H        -5.327786        -0.102209         0.727132
 H        -6.220799        -0.063980         3.081916
