19
Iteration:  1386charge 0 multiplicity 1
 C         1.350427         0.006361         0.153490
 C        -0.044075         0.057297        -0.043872
 C        -1.237422        -0.110434        -0.278451
 C        -2.708369         0.093846        -0.206299
 O        -2.856948         1.516877        -0.680481
 C        -3.275471        -0.148641         1.244001
 C        -4.776751         0.022134         1.548468
 C        -5.100159         0.135542         3.028480
 O        -5.767061         1.047369         3.551040
 H         1.699298        -0.990775         0.457216
 H         1.959452         0.307208        -0.718873
 H         1.621358         0.686965         0.964190
 H        -3.183544        -0.617022        -0.943925
 H        -2.763127         2.074784         0.087807
 H        -2.952567        -1.144197         1.438069
 H        -2.639868         0.620000         1.769830
 H        -5.083943         0.882982         0.866425
 H        -5.456051        -0.902223         1.278112
 H        -4.737427        -0.837536         3.691402
