19
Iteration:   403charge 0 multiplicity 1
 C         1.462047        -0.224273        -0.542960
 C         0.087916        -0.095742        -0.008018
 C        -1.117106        -0.152105         0.096442
 C        -2.544032         0.162578         0.206662
 O        -2.813492         1.339359        -0.753045
 C        -3.156818         0.537723         1.608447
 C        -4.720692         0.604440         1.598427
 C        -5.330489         0.632302         3.018855
 O        -6.246764        -0.055952         3.359455
 H         2.219701         0.258208         0.076210
 H         1.732235        -1.282973        -0.650843
 H         1.506991         0.189505        -1.571299
 H        -3.079902        -0.808100        -0.045274
 H        -1.924323         1.256717        -1.199969
 H        -2.717610        -0.284186         2.386421
 H        -2.612623         1.441797         1.875977
 H        -5.073650         1.507062         1.138654
 H        -5.238209        -0.153945         1.082737
 H        -5.056453         1.499752         3.650761
