19
Iteration:   700charge 0 multiplicity 1
 C         1.281781        -0.589017         0.351581
 C        -0.133306        -0.197770         0.020408
 C        -1.262360         0.220311        -0.124724
 C        -2.717832         0.428212        -0.103599
 O        -3.252432         1.624534        -0.823135
 C        -3.186764         0.298038         1.268344
 C        -4.648663         0.441836         1.379081
 C        -5.009834         0.700404         2.794369
 O        -5.478755        -0.110807         3.566810
 H         1.573907        -0.432445         1.456485
 H         1.409237        -1.610898         0.168303
 H         2.073451        -0.111672        -0.277887
 H        -3.097982        -0.365897        -0.722351
 H        -2.986591         2.322203        -0.206623
 H        -2.743268        -0.737991         1.557954
 H        -2.570723         0.842628         1.971042
 H        -5.255418         1.129397         0.609052
 H        -4.946094        -0.732111         1.315310
 H        -4.660144         1.605910         3.369055
