19
Iteration:  3302charge 0 multiplicity 1
 C         1.289293        -0.057805         0.061134
 C        -0.111224        -0.084217        -0.066143
 C        -1.293137         0.167494        -0.141582
 C        -2.867758         0.129504         0.002021
 O        -3.586371         1.273733        -0.433107
 C        -2.974639        -0.127250         1.563983
 C        -4.333746        -0.667692         1.968351
 C        -5.357192         0.463748         2.408017
 O        -5.114339         1.519080         2.974197
 H         1.925042        -1.015347         0.234025
 H         1.738586         0.619797        -0.778836
 H         1.530896         0.542398         0.993807
 H        -3.355798        -0.609351        -0.601151
 H        -3.552647         2.005666         0.205167
 H        -2.086062        -0.777572         1.837136
 H        -2.777137         0.853727         2.035172
 H        -4.750778        -1.240252         1.175439
 H        -4.326939        -1.383959         2.817979
 H        -6.373058         0.225350         2.031071
