19
Iteration:  1789
 C         1.111593         0.151036         0.767640
 C        -0.227107         0.097038         0.334413
 C        -1.368012        -0.016979        -0.009910
 C        -2.816595        -0.091782        -0.305013
 O        -3.210289         0.833335        -1.371028
 C        -3.435503         0.149337         1.132129
 C        -4.852278         0.763826         1.348735
 C        -5.198177         0.579596         2.817107
 O        -4.482551         0.256503         3.761666
 H         1.712785        -0.496051         0.132947
 H         1.470365         1.263721         0.778787
 H         1.102420        -0.218282         1.804857
 H        -3.037775        -0.982470        -0.958593
 H        -3.006305         1.805006        -1.233559
 H        -3.208044        -0.557975         1.927560
 H        -2.752517         0.907251         1.545396
 H        -4.730223         1.840353         1.022707
 H        -5.750048         0.383115         0.703151
 H        -6.270217         0.759992         3.167193
