19
Iteration:  1874charge 0 multiplicity 1
 C         1.146843         0.011262         0.631326
 C        -0.252497         0.018554         0.274313
 C        -1.397430        -0.179289        -0.030206
 C        -2.763484         0.067453        -0.165895
 O        -3.143165         0.999221        -1.292157
 C        -3.335655         0.703694         1.156738
 C        -4.859164         0.208103         1.412998
 C        -5.258518         0.500470         2.760966
 O        -4.627950         0.385269         3.791130
 H         1.751301        -0.437752        -0.215780
 H         1.536201         1.005293         0.810372
 H         1.331442        -0.551009         1.593396
 H        -3.342264        -0.878482        -0.337338
 H        -2.515443         1.702980        -1.485238
 H        -2.780664         0.225658         2.020055
 H        -3.244618         1.776740         0.884099
 H        -5.484849         0.768613         0.733451
 H        -4.928005        -0.786164         1.039644
 H        -6.338691         0.798213         2.662707
