19
Iteration:  1169charge 0 multiplicity 1
 C         1.473769        -0.149613        -0.125409
 C        -0.011185        -0.013010        -0.198568
 C        -1.213944        -0.014457        -0.022777
 C        -2.614077         0.223569         0.007724
 O        -3.024633         1.360058        -0.702681
 C        -3.071294         0.239399         1.553458
 C        -4.622814         0.206389         1.585946
 C        -5.341749        -0.038133         2.852246
 O        -5.895015         0.858327         3.435594
 H         1.764847        -0.949690         0.585907
 H         1.899161        -0.434271        -1.116305
 H         1.982930         0.761807         0.202561
 H        -3.185671        -0.519419        -0.471417
 H        -2.729410         2.114606        -0.128127
 H        -2.905928        -0.736079         2.085370
 H        -2.725510         1.102986         2.185410
 H        -5.068963         1.190364         1.181248
 H        -4.935399        -0.628988         0.928419
 H        -5.593250        -1.074197         3.157817
