19
Iteration:   455charge 0 multiplicity 1
 C         1.460325        -0.387710        -0.418395
 C         0.034977        -0.167911        -0.169912
 C        -1.126217         0.066346         0.228428
 C        -2.562680         0.375811         0.259564
 O        -3.061742         1.179481        -0.761930
 C        -3.155870         0.546862         1.732495
 C        -4.626880         0.726455         1.509954
 C        -5.257744         0.666598         2.864210
 O        -6.015207        -0.178450         3.265490
 H         2.037293        -0.005154         0.371057
 H         1.640730        -1.522403        -0.397084
 H         1.836946        -0.010464        -1.341857
 H        -2.936070        -0.664504         0.171681
 H        -3.065406         2.059236        -0.302525
 H        -2.895089        -0.356450         2.118329
 H        -2.571658         1.383708         2.139915
 H        -4.792973         1.598364         0.794079
 H        -5.186184        -0.092950         0.862704
 H        -5.060302         1.408725         3.620179
