19
Iteration:  4844
 C         1.209384         0.332804         0.477432
 C        -0.218080         0.282308         0.426604
 C        -1.398284        -0.015035         0.296694
 C        -2.858569        -0.086380         0.159111
 O        -3.465150        -0.198811        -1.105856
 C        -3.492598         1.214448         0.870568
 C        -4.969263         1.005701         1.349313
 C        -5.034475         0.129922         2.637266
 O        -4.253027         0.319626         3.539432
 H         1.376597        -0.482529        -0.263230
 H         1.797480         1.155920        -0.018216
 H         1.582741         0.095455         1.540568
 H        -3.241616        -0.915132         0.814906
 H        -3.053853         0.498544        -1.696790
 H        -2.708091         1.666230         1.475951
 H        -3.484323         1.753177        -0.093549
 H        -5.312507         1.996424         1.632241
 H        -5.591793         0.394210         0.630422
 H        -5.720283        -0.752955         2.614995
