19
Iteration:  2698charge 0 multiplicity 1
 C         1.338571        -0.271843         0.088463
 C         0.015253         0.249036        -0.197359
 C        -1.163330         0.342810        -0.004509
 C        -2.606986         0.118591         0.157556
 O        -3.508627         0.644485        -0.940388
 C        -3.223950         0.491312         1.523577
 C        -4.579032        -0.237432         1.596216
 C        -5.312254         0.243084         2.865676
 O        -5.240513         1.316090         3.427263
 H         2.206920         0.262974         0.541261
 H         1.238289        -1.255017         0.706946
 H         1.778731        -0.492350        -0.900190
 H        -2.784066        -0.892912        -0.165419
 H        -3.143496         1.431397        -1.430569
 H        -2.566062         0.277639         2.305748
 H        -3.534184         1.537217         1.399931
 H        -5.123857         0.110796         0.743749
 H        -4.673437        -1.267416         1.605749
 H        -6.048292        -0.529471         3.216733
