19
Iteration:  1458
 C         1.481688        -0.143387        -0.176162
 C         0.060114        -0.049690        -0.013595
 C        -1.178358         0.068621         0.061744
 C        -2.592747         0.154620         0.140752
 O        -3.057779         1.356626        -0.597790
 C        -3.269731         0.307934         1.464030
 C        -4.805318         0.213970         1.360368
 C        -5.270776        -0.004531         2.760214
 O        -5.703759         0.849213         3.510027
 H         1.817373        -1.234991        -0.153915
 H         1.920154         0.272940        -1.099806
 H         1.975288         0.434377         0.663765
 H        -3.109701        -0.783173        -0.282022
 H        -3.098714         1.173381        -1.536149
 H        -2.939966        -0.534660         2.237120
 H        -2.904656         1.265315         1.976609
 H        -5.269345         1.125075         0.944805
 H        -5.032119        -0.620553         0.705088
 H        -5.293831        -1.184317         2.967482
