19
Iteration:   113charge 0 multiplicity 1
 C         1.395939         0.114062         0.142942
 C        -0.047519        -0.140374        -0.171625
 C        -1.290328        -0.125060        -0.182855
 C        -2.718559         0.055817        -0.093469
 O        -2.989510         1.481392        -0.366548
 C        -3.139822        -0.220720         1.329774
 C        -4.683392         0.172710         1.439820
 C        -4.942841         0.787944         2.787813
 O        -5.905516         0.522575         3.461921
 H         1.512393         0.664634         1.135816
 H         2.000235        -0.723830         0.090417
 H         1.719843         0.803190        -0.673480
 H        -3.203979        -0.560953        -0.782616
 H        -3.783632         1.481993        -0.959658
 H        -2.910307        -1.294551         1.481635
 H        -2.470268         0.034433         2.110805
 H        -5.014704         0.842230         0.658753
 H        -5.387849        -0.727933         1.409904
 H        -4.049139         1.444564         3.154885
