19
Iteration:  3695charge 0 multiplicity 1
 C         1.211417         0.357198         0.366885
 C        -0.197997         0.384762         0.116365
 C        -1.286029        -0.073447         0.049052
 C        -2.693145        -0.334645         0.109769
 O        -3.520783        -0.009690        -1.039667
 C        -3.203609         0.642338         1.207415
 C        -4.819335         0.716198         1.267663
 C        -5.313009         0.676355         2.700246
 O        -4.605549         0.634908         3.712013
 H         1.868614         0.666305        -0.496958
 H         1.583581         1.091371         1.211500
 H         1.548339        -0.647021         0.724730
 H        -2.720761        -1.414712         0.366009
 H        -3.004064        -0.174172        -1.852052
 H        -2.928544         0.225685         2.206437
 H        -2.739478         1.653128         1.058398
 H        -5.349499         1.480933         0.612705
 H        -5.200999        -0.226098         0.937748
 H        -6.417554         0.645913         2.840281
