19
Iteration:  1857
 C         1.147498         0.068643         0.663270
 C        -0.233413        -0.002935         0.302361
 C        -1.430180        -0.118360         0.035496
 C        -2.928770         0.016988        -0.217719
 O        -3.135869         0.950067        -1.220774
 C        -3.397574         0.577866         1.103745
 C        -4.835303         0.389598         1.262940
 C        -5.243960         0.544919         2.793026
 O        -4.498378         0.317157         3.724490
 H         1.785212        -0.412555        -0.029262
 H         1.569598         1.098632         0.959210
 H         1.323478        -0.363062         1.626901
 H        -3.544780        -0.873013        -0.437882
 H        -2.321402         1.450832        -1.017100
 H        -2.690551         0.269050         1.833579
 H        -3.163657         1.653971         1.022030
 H        -5.503770         0.792779         0.459441
 H        -4.965035        -0.763918         1.296095
 H        -6.272605         0.887431         3.074384
