19
Iteration:   727
 C         1.265913        -0.568365         0.233358
 C        -0.112938        -0.097423         0.167036
 C        -1.197679         0.247211        -0.172068
 C        -2.658122         0.368828        -0.175204
 O        -3.200016         1.635945        -0.710306
 C        -3.236142         0.140713         1.310266
 C        -4.737415         0.374339         1.386229
 C        -5.092794         0.687705         2.733055
 O        -5.454612        -0.028556         3.620981
 H         1.670712        -0.556230         1.202088
 H         1.297095        -1.660903        -0.130747
 H         1.939038        -0.076155        -0.453070
 H        -3.050604        -0.490239        -0.884091
 H        -2.391693         2.172720        -0.663284
 H        -2.733004        -0.717815         1.757565
 H        -2.704579         0.913673         1.950801
 H        -5.020944         1.368636         0.980378
 H        -5.282596        -0.420842         1.016299
 H        -5.043663         1.665119         3.038360
