19
Iteration:  2715
 C         1.359199        -0.379804        -0.046840
 C         0.016085         0.295621        -0.097681
 C        -1.185212         0.386737        -0.034235
 C        -2.654628         0.150038         0.144903
 O        -3.349835         0.604631        -0.993049
 C        -3.309219         0.601296         1.466601
 C        -4.638988        -0.168031         1.678850
 C        -5.347145         0.148818         2.967958
 O        -5.283319         1.289678         3.371882
 H         1.915206         0.337034         0.569546
 H         1.183495        -1.189992         0.607056
 H         1.898150        -0.628068        -0.967041
 H        -2.622077        -0.974232         0.228376
 H        -2.798470         1.387836        -1.251476
 H        -2.634984         0.363532         2.394808
 H        -3.267856         1.693529         1.609639
 H        -5.368081         0.094910         0.837057
 H        -4.359773        -1.294932         1.571347
 H        -5.717134        -0.735966         3.544598
