19
Iteration:  1732
 C         1.180281         0.191258         0.736149
 C        -0.128059         0.006675         0.090710
 C        -1.286064         0.016587        -0.250043
 C        -2.840161        -0.092511        -0.171234
 O        -3.418119         0.927152        -0.979193
 C        -3.214632         0.130526         1.259507
 C        -4.640856         0.541952         1.308097
 C        -5.240666         0.716041         2.679753
 O        -4.826979         0.280459         3.741422
 H         2.049411        -0.468809         0.364061
 H         1.622641         1.188564         0.618200
 H         1.178325         0.059993         1.862449
 H        -3.218546        -1.046249        -0.719984
 H        -2.790333         1.405837        -1.508979
 H        -3.138213        -0.923800         1.669842
 H        -2.491502         0.940920         1.569798
 H        -4.720616         1.631309         0.960558
 H        -5.418713        -0.002365         0.648757
 H        -6.115186         1.498140         2.677021
