19
Iteration:  3717
 C         1.281690         0.428938         0.491738
 C        -0.078107         0.084160        -0.002659
 C        -1.335848         0.006093        -0.013878
 C        -2.791877        -0.208701         0.157349
 O        -3.523856        -0.090824        -1.078831
 C        -3.347962         0.776444         1.188793
 C        -4.817493         0.708266         1.293094
 C        -5.280456         0.589374         2.715875
 O        -4.518049         0.604788         3.677240
 H         1.927995         0.889866        -0.299674
 H         1.200243         1.126897         1.460349
 H         1.705035        -0.534513         0.843960
 H        -2.902776        -1.290603         0.517897
 H        -2.748945        -0.130186        -1.667867
 H        -2.850921         0.655197         2.189809
 H        -3.193526         1.824553         0.782492
 H        -5.450516         1.646818         1.191059
 H        -5.201078        -0.047259         0.703385
 H        -6.371625         0.738072         2.907112
