19
Iteration:   652charge 0 multiplicity 1
 C         1.250776        -0.566598         0.415748
 C        -0.098960        -0.108172        -0.028440
 C        -1.258514         0.074426        -0.297190
 C        -2.680376         0.449121        -0.287115
 O        -3.051318         1.626408        -0.971006
 C        -3.187306         0.511083         1.273585
 C        -4.756128         0.435041         1.537270
 C        -5.002198         0.550020         2.994519
 O        -5.656988        -0.181735         3.708941
 H         1.456777        -0.279085         1.459936
 H         1.356161        -1.727760         0.410534
 H         2.109974        -0.112633        -0.156378
 H        -3.327019        -0.356612        -0.784201
 H        -2.229912         2.156771        -0.868533
 H        -2.827924        -0.446206         1.537549
 H        -2.459288         1.183680         1.893884
 H        -5.293078         1.182283         0.970139
 H        -4.948285        -0.534739         1.050102
 H        -4.740152         1.428242         3.545338
