19
Iteration:  4627charge 0 multiplicity 1
 C         1.253045         0.199085         0.389808
 C        -0.199556         0.162406         0.200028
 C        -1.342534         0.387719        -0.049591
 C        -2.715049         0.031990         0.145869
 O        -3.455643        -0.235000        -1.059034
 C        -3.279764         1.141152         0.986087
 C        -4.795310         0.926288         1.334394
 C        -5.195740         0.303231         2.731189
 O        -4.675990         0.127002         3.822507
 H         1.850158        -0.509383         0.999237
 H         1.742663         0.117152        -0.551656
 H         1.435215         1.283932         0.725586
 H        -2.803986        -0.958570         0.717376
 H        -2.876731         0.018491        -1.791030
 H        -2.787263         1.316770         2.008317
 H        -3.332892         2.131857         0.416737
 H        -5.341375         1.912371         1.305486
 H        -5.236445         0.248549         0.591498
 H        -6.244923         0.047137         2.689427
