19
Iteration:  3386
 C         1.186335        -0.198378         0.080710
 C        -0.045067         0.200301        -0.317336
 C        -1.288936         0.156652        -0.163727
 C        -2.736052         0.104140         0.180520
 O        -3.370896         1.274508        -0.515706
 C        -3.053864         0.094288         1.596753
 C        -4.428795        -0.590112         1.868894
 C        -5.387625         0.257820         2.765809
 O        -5.239375         1.455110         2.854963
 H         1.336263        -1.184592        -0.387231
 H         1.919163         0.392762        -0.364512
 H         1.236623        -0.113573         1.164758
 H        -3.237662        -0.865190        -0.283455
 H        -2.705193         1.933852        -0.786068
 H        -2.332970        -0.565444         2.101475
 H        -3.076364         1.040086         2.132046
 H        -4.877919        -1.071296         0.963675
 H        -4.344207        -1.427831         2.624051
 H        -6.122859        -0.309494         3.416865
