19
Iteration:  2893
 C         1.340503         0.070262         0.036098
 C        -0.140886        -0.050422        -0.018416
 C        -1.337510         0.019081         0.034219
 C        -2.731568        -0.016255        -0.017805
 O        -3.418693         0.933398        -0.832191
 C        -3.167947         0.350989         1.438485
 C        -4.501869        -0.440895         1.886079
 C        -5.296672         0.330733         2.930462
 O        -5.123295         1.527997         3.070187
 H         1.664596         0.396374         1.023462
 H         1.698555        -0.885313        -0.119889
 H         1.699100         0.736781        -0.712631
 H        -3.042791        -1.051101        -0.174907
 H        -3.058466         0.889797        -1.758034
 H        -2.446544         0.240359         2.266077
 H        -3.358739         1.433796         1.324400
 H        -5.161448        -0.811987         0.970605
 H        -4.289850        -1.481288         2.421154
 H        -6.016943        -0.225885         3.642012
