19
Iteration:   306charge 0 multiplicity 1
 C         1.541522        -0.203369        -0.256666
 C         0.101286        -0.012536        -0.185087
 C        -1.126505         0.046049        -0.110758
 C        -2.552236         0.134757         0.009550
 O        -3.116060         1.387309        -0.483473
 C        -3.038472         0.060610         1.507918
 C        -4.622494         0.228722         1.631612
 C        -5.216340         0.690221         2.969878
 O        -6.295872         0.381916         3.371112
 H         2.084353         0.279855         0.626258
 H         1.801739        -1.283420        -0.291475
 H         1.938754         0.203530        -1.247417
 H        -3.040801        -0.741721        -0.429885
 H        -2.472966         1.692111        -1.177772
 H        -2.436639        -0.708722         2.049549
 H        -2.524419         0.897184         1.903909
 H        -4.960315         1.068500         0.894771
 H        -5.208253        -0.635302         1.339857
 H        -4.680155         1.342188         3.513915
