19
Iteration:  3281
 C         1.336859        -0.011954         0.028464
 C        -0.155914         0.161511        -0.198431
 C        -1.373375         0.182137        -0.227180
 C        -2.711336         0.018262         0.151103
 O        -3.502866         1.170676        -0.310713
 C        -3.020759        -0.198146         1.652130
 C        -4.505736        -0.598120         1.926796
 C        -5.395700         0.506997         2.316911
 O        -5.052592         1.502164         2.928658
 H         1.466327        -1.107173         0.242082
 H         2.010166         0.307835        -0.847975
 H         1.755642         0.406754         0.965975
 H        -3.179777        -0.736406        -0.389290
 H        -3.131070         1.999009         0.073551
 H        -2.490319        -1.108384         2.046628
 H        -2.723044         0.667420         2.288144
 H        -5.003437        -1.177145         1.172669
 H        -4.452823        -1.218916         2.777851
 H        -6.469405         0.268841         2.139860
