19
Iteration:  3176charge 0 multiplicity 1
 C         1.091426         0.539656        -0.543076
 C        -0.167403         0.231238         0.081066
 C        -1.257422        -0.119229         0.445290
 C        -2.717142        -0.245008         0.319495
 O        -3.190350         1.100272        -0.015646
 C        -3.322243        -0.704953         1.783425
 C        -4.832765        -0.606040         1.739452
 C        -5.382203         0.814649         2.076169
 O        -4.625282         1.632763         2.609395
 H         1.914868        -0.183375        -0.330702
 H         1.121432         0.542502        -1.633606
 H         1.550326         1.496378        -0.189460
 H        -3.010606        -0.984679        -0.455752
 H        -3.441980         1.463730         0.868953
 H        -3.000810        -1.715325         1.935760
 H        -2.979289        -0.103308         2.624635
 H        -5.379101        -1.027557         0.848606
 H        -5.265855        -1.348099         2.510968
 H        -6.392692         0.997936         1.670975
