19
Iteration:  4449charge 0 multiplicity 1
 C         1.424782         0.273886        -0.306348
 C        -0.050774         0.482713         0.086930
 C        -1.237826         0.218268         0.297177
 C        -2.638493         0.092301         0.603635
 O        -3.408009        -0.493730        -0.546447
 C        -3.254595         1.321294         1.345885
 C        -4.740036         1.318606         1.474968
 C        -5.465703         0.506907         2.514541
 O        -4.979190        -0.434655         3.065086
 H         1.989795         0.116611         0.618353
 H         1.246567        -0.672931        -0.904967
 H         1.910809         0.985521        -0.942595
 H        -2.806056        -0.763936         1.306507
 H        -3.066021        -1.426594        -0.538391
 H        -2.884525         1.400685         2.385215
 H        -2.997926         2.293316         0.838429
 H        -5.137171         2.335599         1.625343
 H        -5.055546         0.968301         0.493239
 H        -6.459762         0.737889         2.791561
