19
Iteration:   627charge 0 multiplicity 1
 C         1.191724        -0.466739         0.314179
 C        -0.180553        -0.177467         0.051695
 C        -1.340879         0.117336        -0.129291
 C        -2.709870         0.399346        -0.310295
 O        -2.913465         1.684070        -1.061254
 C        -3.179379         0.447955         1.310465
 C        -4.668863         0.388402         1.610002
 C        -4.976791         0.566454         3.067083
 O        -5.695440        -0.210352         3.614922
 H         1.503498        -0.207253         1.320835
 H         1.248956        -1.628868         0.316516
 H         1.937217        -0.049792        -0.343248
 H        -3.597196        -0.254158        -0.772042
 H        -2.066955         1.694257        -1.504809
 H        -2.515973        -0.323480         1.847639
 H        -2.641891         1.439894         1.558022
 H        -4.986601         1.256825         1.019459
 H        -5.104974        -0.431186         1.125723
 H        -4.684866         1.366413         3.775307
