19
Iteration:  1053charge 0 multiplicity 1
 C         1.470673        -0.139768        -0.400978
 C         0.059739        -0.013413        -0.123634
 C        -1.203525        -0.123814        -0.034543
 C        -2.562525         0.124573         0.151014
 O        -2.927756         1.364422        -0.546355
 C        -3.028787         0.277536         1.591439
 C        -4.543568         0.500973         1.618297
 C        -5.272862         0.125324         2.916040
 O        -6.328231         0.573254         3.335102
 H         1.960602        -0.669755         0.391318
 H         1.643275        -0.735108        -1.368415
 H         1.930934         0.849752        -0.468462
 H        -3.152140        -0.763999        -0.232433
 H        -2.510949         1.297288        -1.413391
 H        -2.576529        -0.572011         2.164741
 H        -2.584804         1.213226         1.871207
 H        -4.915141         1.509588         1.506127
 H        -5.114955         0.018293         0.771089
 H        -4.657027        -0.406600         3.728101
