19
Iteration:  4586charge 0 multiplicity 1
 C         1.360330         0.370206         0.197974
 C        -0.102150         0.313687         0.053451
 C        -1.254258        -0.162444         0.305087
 C        -2.796226        -0.066888         0.299973
 O        -3.432238        -0.128013        -0.981263
 C        -3.370281         1.048646         1.194455
 C        -4.979514         1.054680         1.317020
 C        -5.309266         0.273619         2.601592
 O        -4.543052         0.199760         3.542924
 H         1.595034        -0.297448         1.036444
 H         1.781008         0.066185        -0.756483
 H         1.796494         1.403852         0.257711
 H        -2.974037        -1.009243         0.885544
 H        -3.288515         0.618169        -1.568730
 H        -2.950802         1.005160         2.238554
 H        -2.810700         1.958836         0.932258
 H        -5.278649         2.102800         1.613148
 H        -5.473532         0.966376         0.379058
 H        -6.370900        -0.242048         2.535135
