19
Iteration:  1605charge 0 multiplicity 1
 C         1.464268        -0.042398        -0.232031
 C         0.037984        -0.086367         0.040879
 C        -1.165386         0.070528         0.372925
 C        -2.603942         0.116173         0.274684
 O        -2.953156         1.063820        -0.898614
 C        -3.453393         0.508889         1.513897
 C        -4.937219         0.249852         1.253070
 C        -5.701557         0.330587         2.624152
 O        -5.139905         0.494067         3.661170
 H         1.814815        -0.883310        -0.773264
 H         1.604849         0.767203        -1.001726
 H         2.122266         0.148342         0.581691
 H        -2.936276        -0.766401        -0.371023
 H        -2.425108         1.893172        -0.709847
 H        -3.112256        -0.131562         2.349271
 H        -3.115956         1.463291         1.914136
 H        -5.359782         0.970431         0.563429
 H        -5.021746        -0.697252         0.772208
 H        -6.773669         0.288247         2.492372
