19
Iteration:  1541charge 0 multiplicity 1
 C         1.476459        -0.287081        -0.333690
 C         0.130518         0.035866         0.010680
 C        -1.016261         0.265416         0.193145
 C        -2.545884         0.269295         0.223159
 O        -3.107703         0.995575        -0.782874
 C        -3.221506         0.511341         1.627892
 C        -4.705563         0.358990         1.461184
 C        -5.633329         0.047916         2.549984
 O        -5.679138         0.629342         3.643226
 H         1.527657        -1.267281        -0.658678
 H         1.536693         0.366100        -1.240547
 H         2.283313        -0.123338         0.306018
 H        -2.757035        -0.759297         0.055667
 H        -2.736850         1.857016        -1.137129
 H        -2.935437        -0.261632         2.255234
 H        -2.830339         1.448715         1.882325
 H        -5.131212         1.219531         0.979120
 H        -4.760867        -0.455060         0.691884
 H        -6.439530        -0.685743         2.503965
