19
Iteration:  2297
 C         0.992893         0.240022         0.603055
 C        -0.295478         0.219504        -0.068959
 C        -1.493574         0.129643        -0.212794
 C        -3.005969        -0.039482        -0.025975
 O        -3.600082         1.299552        -0.038973
 C        -3.140049        -0.813780         1.326335
 C        -4.587827        -0.763806         1.873617
 C        -5.050442         0.756816         2.181172
 O        -4.279195         1.643110         2.591857
 H         1.721180         0.971157         0.191988
 H         0.851331         0.589816         1.577650
 H         1.594008        -0.691539         0.546346
 H        -3.310983        -0.654108        -0.840210
 H        -3.098977         1.753789         0.635973
 H        -3.048308        -1.856572         1.115804
 H        -2.421688        -0.419482         2.007285
 H        -5.283079        -1.274772         1.193488
 H        -4.848450        -1.262060         2.902382
 H        -6.115535         0.816035         1.853860
