19
Iteration:  2437
 C         1.236076         0.602838         0.274725
 C        -0.227596         0.281413         0.350318
 C        -1.416534         0.003489         0.066467
 C        -2.848669        -0.321145         0.026734
 O        -3.654781         0.914744        -0.510193
 C        -3.490583        -0.823614         1.316853
 C        -4.937902        -0.293028         1.484092
 C        -4.951927         0.985065         2.327400
 O        -4.138049         1.316650         3.188239
 H         1.437140         1.561274        -0.217756
 H         1.694304         0.601973         1.285144
 H         1.461755        -0.173766        -0.453669
 H        -2.990431        -0.965168        -0.860943
 H        -3.031423         1.646401        -0.665049
 H        -3.475032        -1.944843         1.287474
 H        -2.854372        -0.434180         2.135175
 H        -5.444509        -0.097956         0.521887
 H        -5.621082        -1.011485         1.846606
 H        -5.833538         1.666288         2.291566
