19
Iteration:  3789
 C         1.235360         0.271224         0.402284
 C        -0.230410         0.260937         0.390028
 C        -1.435020        -0.037303         0.334747
 C        -2.841492        -0.085348         0.128136
 O        -3.320112        -0.146717        -1.179889
 C        -3.509720         1.063207         0.728488
 C        -4.926203         0.929396         1.350300
 C        -5.093008         0.392095         2.766121
 O        -4.312721         0.424786         3.695508
 H         1.635506         0.864362        -0.449649
 H         1.633762         0.519711         1.332941
 H         1.471462        -0.824990         0.287901
 H        -3.312240        -0.909441         0.639021
 H        -3.009179        -0.949828        -1.623396
 H        -2.801312         1.408722         1.542607
 H        -3.726048         1.819927        -0.036491
 H        -5.582865         1.869491         1.200827
 H        -5.427259        -0.075498         0.843010
 H        -6.132132         0.019595         2.991042
