19
Iteration:  3368
 C         1.245889        -0.231534         0.148759
 C        -0.146467         0.305060        -0.254525
 C        -1.380006         0.066970        -0.199542
 C        -2.823954         0.134011         0.019251
 O        -3.372822         1.302118        -0.548206
 C        -3.041237         0.033753         1.611058
 C        -4.337386        -0.630271         2.048130
 C        -5.340557         0.277894         2.625432
 O        -5.204933         1.457763         2.905899
 H         1.253077        -1.309433        -0.196240
 H         2.191033         0.263985        -0.310878
 H         1.275095         0.010603         1.224343
 H        -3.336236        -0.676132        -0.490284
 H        -2.791522         2.090477        -0.557776
 H        -2.186725        -0.421431         2.115594
 H        -3.031034         1.078660         1.935367
 H        -4.861609        -1.089084         1.225723
 H        -4.073132        -1.612212         2.601889
 H        -6.329493        -0.166350         2.896837
