19
Iteration:  4290
 C         1.119166         0.390725        -0.515709
 C        -0.183879         0.079552        -0.002581
 C        -1.219632         0.093504         0.613476
 C        -2.554408         0.166547         0.962876
 O        -3.351891        -0.407925        -0.130696
 C        -3.079832         1.549236         1.271895
 C        -4.682588         1.468776         1.423303
 C        -5.369931         0.182975         1.957454
 O        -5.002870        -0.442395         2.978850
 H         1.876160         0.890132         0.108241
 H         1.557535        -0.406775        -1.033591
 H         0.895792         1.221615        -1.250427
 H        -2.921278        -0.311540         1.834269
 H        -3.015151        -1.350798        -0.120299
 H        -2.655863         1.938320         2.202603
 H        -2.995092         2.311234         0.512426
 H        -5.018333         2.264636         2.043033
 H        -5.186154         1.651573         0.451079
 H        -6.211557        -0.104872         1.342026
