19
Iteration:  4362
 C         1.155357         0.301299        -0.363598
 C        -0.208120         0.342372         0.017823
 C        -1.310090         0.075256         0.506792
 C        -2.692804         0.113901         0.935519
 O        -3.492009        -0.498254        -0.106103
 C        -3.169898         1.529520         1.257591
 C        -4.688630         1.489399         1.470126
 C        -5.338537         0.273994         2.026062
 O        -4.699287        -0.460668         2.782014
 H         1.955178         0.468735         0.397080
 H         1.439493        -0.655159        -0.943065
 H         1.347069         1.108640        -1.057041
 H        -2.759126        -0.555741         1.863671
 H        -2.796035        -1.151483        -0.332534
 H        -2.584474         1.711692         2.185192
 H        -2.867631         2.253550         0.453128
 H        -5.030453         2.269166         2.268344
 H        -5.266088         1.816384         0.629930
 H        -6.350831         0.244840         1.695228
