19
Iteration:  3434
 C         1.483837        -0.090582        -0.262015
 C         0.019092        -0.100133         0.087513
 C        -1.189971         0.099089         0.000986
 C        -2.674030         0.182559         0.047429
 O        -3.519012         1.175765        -0.464941
 C        -3.075931         0.072305         1.593910
 C        -4.555436        -0.450026         1.716309
 C        -5.408579         0.295701         2.795412
 O        -5.395568         1.493846         2.970538
 H         1.726085        -0.844913        -0.994352
 H         1.863606         0.892478        -0.644224
 H         2.033126        -0.196041         0.652098
 H        -2.761420        -0.777250        -0.577762
 H        -3.155799         1.963123        -0.898479
 H        -2.572831        -0.716492         2.106400
 H        -2.931581         0.989229         2.161610
 H        -5.090100        -0.485850         0.793755
 H        -4.695701        -1.424990         2.288826
 H        -5.996298        -0.429241         3.435614
