19
Iteration:  4117charge 0 multiplicity 1
 C         1.180127         0.710582        -0.503550
 C         0.095406         0.147340         0.260137
 C        -1.140275        -0.003983         0.383774
 C        -2.499437        -0.193723         0.715431
 O        -3.279595        -0.355612        -0.501702
 C        -3.142653         1.107962         1.278860
 C        -4.662518         1.252807         1.338372
 C        -5.460282         0.578374         2.367259
 O        -5.361718        -0.196106         3.327077
 H         1.586507         1.707073        -0.253802
 H         1.926305        -0.042072        -0.565830
 H         0.892901         0.653739        -1.579866
 H        -2.543718        -0.997864         1.517443
 H        -3.109233        -1.211412        -0.889591
 H        -2.669285         1.252465         2.252026
 H        -2.704067         1.919779         0.745863
 H        -4.982476         2.322667         1.310114
 H        -5.053072         0.757089         0.358279
 H        -6.538239         0.957880         2.012356
