19
Iteration:  3315
 C         1.304523        -0.034655         0.095273
 C        -0.184247        -0.214332         0.035474
 C        -1.353047         0.093344        -0.115838
 C        -2.759743         0.212288        -0.062431
 O        -3.654479         1.350234        -0.514378
 C        -2.935086        -0.008836         1.474443
 C        -4.311964        -0.600879         2.052462
 C        -5.367769         0.373053         2.441712
 O        -5.100949         1.446580         2.961466
 H         1.832845        -0.999491         0.027460
 H         1.698064         0.584982        -0.800379
 H         1.505758         0.520738         1.032307
 H        -3.054560        -0.637545        -0.614108
 H        -3.621411         2.025267         0.200707
 H        -2.265819        -0.871767         1.747967
 H        -2.541513         0.864547         2.059509
 H        -4.772948        -1.258801         1.299567
 H        -4.003807        -1.200108         2.814656
 H        -6.425357         0.174388         2.181006
