19
Iteration:   791charge 0 multiplicity 1
 C         1.475760        -0.352355         0.015783
 C        -0.053527        -0.252624        -0.076235
 C        -1.263207         0.002459        -0.013529
 C        -2.652974         0.369920        -0.016280
 O        -2.820988         1.685467        -0.582854
 C        -3.358254         0.219658         1.306231
 C        -4.973219         0.319650         1.333279
 C        -5.255254         0.745991         2.795192
 O        -5.574659        -0.005937         3.708660
 H         1.766882        -0.290161         1.023620
 H         1.786271        -1.379409        -0.353500
 H         1.979994         0.404407        -0.539094
 H        -3.104123        -0.365546        -0.651240
 H        -2.611680         1.841577        -1.542154
 H        -3.138888        -0.822108         1.718283
 H        -2.955013         0.939247         2.027024
 H        -5.220363         0.825094         0.322143
 H        -5.259741        -0.708176         1.179522
 H        -4.962609         1.803199         2.862018
