19
Iteration:   761
 C         1.357738        -0.500468         0.115109
 C        -0.013972        -0.006409         0.001696
 C        -1.242129         0.074379        -0.026783
 C        -2.623813         0.326873        -0.139986
 O        -2.953039         1.681729        -0.638308
 C        -3.344126         0.136145         1.237957
 C        -4.892428         0.336994         1.384100
 C        -5.223094         0.745943         2.803505
 O        -5.505125        -0.027093         3.713855
 H         1.678735        -0.534606         1.143875
 H         1.304385        -1.559212        -0.233953
 H         2.102446         0.056719        -0.473632
 H        -3.047194        -0.517093        -0.835216
 H        -2.305049         1.969694        -1.285258
 H        -3.073602        -0.830079         1.579807
 H        -2.860485         0.983854         1.800537
 H        -5.176664         1.051168         0.651809
 H        -5.346733        -0.576059         1.127844
 H        -5.180680         1.874884         2.997344
