19
Iteration:   803
 C         1.319598        -0.288304        -0.034483
 C        -0.043427        -0.343704        -0.031927
 C        -1.181498        -0.004117        -0.037463
 C        -2.583474         0.294173        -0.059867
 O        -2.819298         1.666181        -0.476239
 C        -3.336805         0.296409         1.323445
 C        -4.881430         0.287248         1.300698
 C        -5.285106         0.726973         2.740553
 O        -5.611636         0.025225         3.687897
 H         1.716794        -0.173432         0.920938
 H         1.809007        -1.194638        -0.491460
 H         1.638088         0.543642        -0.640063
 H        -3.057781        -0.339599        -0.777390
 H        -2.591705         1.562998        -1.407720
 H        -3.035453        -0.629837         1.861652
 H        -2.885916         1.125348         1.916436
 H        -5.428923         1.100362         0.719988
 H        -5.360531        -0.657856         1.211617
 H        -5.017719         1.723829         3.079640
