19
Iteration:  3676
 C         1.333015         0.389681         0.250517
 C        -0.190280         0.445714         0.271531
 C        -1.269434        -0.065758        -0.052724
 C        -2.816457        -0.342714         0.132586
 O        -3.453028         0.032963        -1.114549
 C        -3.252941         0.499850         1.315487
 C        -4.722009         0.584874         1.387288
 C        -5.341497         0.778371         2.670101
 O        -4.716402         0.674713         3.726691
 H         1.747673         0.569773        -0.717124
 H         1.950978         1.049480         0.886318
 H         1.626736        -0.597054         0.550636
 H        -3.091665        -1.360918         0.374257
 H        -3.026399        -0.410680        -1.862053
 H        -2.879269         0.108895         2.214057
 H        -2.823879         1.478764         1.151508
 H        -4.932230         1.391998         0.630049
 H        -5.294478        -0.231818         0.838535
 H        -6.455467         0.932267         2.622788
