19
Iteration:  4054
 C         1.140537         0.704959        -0.161818
 C        -0.211855         0.193072         0.133835
 C        -1.321250        -0.009005         0.491098
 C        -2.738457        -0.285953         0.679388
 O        -3.163785        -0.422540        -0.758475
 C        -3.163274         1.022730         1.292900
 C        -4.749377         1.317411         1.329636
 C        -5.456266         0.590759         2.467539
 O        -4.739494        -0.051373         3.159835
 H         1.253588         1.784834         0.076777
 H         1.913212         0.116806         0.468353
 H         1.382459         0.540618        -1.238452
 H        -2.985171        -1.171033         1.280587
 H        -3.655648        -1.245179        -0.910557
 H        -2.810076         1.005238         2.366376
 H        -2.698963         1.890236         0.716285
 H        -5.116406         2.380988         1.286216
 H        -5.247526         0.967447         0.453600
 H        -6.574263         0.593479         2.463695
