19
Iteration:  2197
 C         1.351935         0.256637        -0.243456
 C        -0.016718         0.183992         0.164963
 C        -1.203930         0.074716         0.371866
 C        -2.651153        -0.115129         0.189329
 O        -3.261257         1.099158        -0.337806
 C        -3.434880        -0.602273         1.480135
 C        -4.963424        -0.532388         1.529765
 C        -5.398519         0.645302         2.453407
 O        -4.786094         1.614938         2.942500
 H         1.347388         0.702216        -1.271467
 H         1.924590         0.980020         0.352202
 H         1.920809        -0.699109        -0.367490
 H        -2.762470        -0.794274        -0.683487
 H        -3.081745         1.929888         0.146980
 H        -3.147581        -1.655216         1.653800
 H        -3.061759        -0.146583         2.399690
 H        -5.435631         0.040193         0.712409
 H        -5.662029        -1.450557         1.665557
 H        -6.477144         0.525799         2.541874
