19
Iteration:  2033charge 0 multiplicity 1
 C         1.572243        -0.170000        -0.194794
 C         0.093925         0.043064        -0.008254
 C        -1.106741         0.147214         0.133269
 C        -2.595365         0.139428         0.171993
 O        -3.123198         0.999212        -0.822938
 C        -3.319718         0.238872         1.622941
 C        -4.822574        -0.182261         1.549288
 C        -5.622991         0.390045         2.575290
 O        -5.377306         1.098495         3.503524
 H         1.724546        -0.133999        -1.294906
 H         2.043296         0.803842         0.023920
 H         2.042698        -1.102713         0.122681
 H        -3.154018        -0.815981         0.006266
 H        -2.799749         1.886790        -0.605167
 H        -2.709260        -0.386786         2.293108
 H        -3.420786         1.253786         2.051263
 H        -5.198079         0.427018         0.725473
 H        -5.224973        -1.158950         1.382507
 H        -6.688526         0.155853         2.387523
