19
Iteration:  1050charge 0 multiplicity 1
 C         1.480152        -0.136316        -0.395857
 C         0.041522        -0.040020        -0.148837
 C        -1.157607        -0.146829        -0.062358
 C        -2.540122         0.153451         0.148017
 O        -2.954018         1.363563        -0.525143
 C        -2.995400         0.301771         1.591677
 C        -4.586243         0.505757         1.622417
 C        -5.266748         0.137030         2.939910
 O        -6.344857         0.564817         3.328740
 H         2.028664        -0.662573         0.383084
 H         1.709119        -0.727631        -1.301759
 H         1.882414         0.864402        -0.431773
 H        -3.131091        -0.841090        -0.211598
 H        -2.520086         1.252716        -1.375812
 H        -2.664516        -0.623893         2.093505
 H        -2.613890         1.273503         1.906245
 H        -4.805996         1.552990         1.494322
 H        -5.130522        -0.043389         0.699058
 H        -4.722224        -0.436067         3.728967
