19
Iteration:  3911charge 0 multiplicity 1
 C         1.195557         0.084392         0.428568
 C        -0.183901         0.355199         0.384883
 C        -1.427052         0.482357         0.285356
 C        -2.833595         0.072984         0.396185
 O        -3.420115        -0.664471        -0.670315
 C        -3.676949         1.385170         0.754126
 C        -5.045381         1.076641         1.238404
 C        -5.025613         0.434986         2.567374
 O        -4.032201        -0.053138         3.132339
 H         1.824204         0.950715         0.156707
 H         1.393352        -0.250780         1.434231
 H         1.410652        -0.821244        -0.175783
 H        -2.857135        -0.535273         1.276295
 H        -3.435494         0.059106        -1.329713
 H        -3.221143         1.811457         1.680310
 H        -3.675449         2.019452        -0.134380
 H        -5.281656         2.142354         1.506435
 H        -5.875823         0.754943         0.676501
 H        -6.056418         0.337937         3.026646
