19
Iteration:  1947
 C         1.446649        -0.307569         0.298055
 C         0.015583         0.087872         0.079377
 C        -1.190049         0.249001         0.003657
 C        -2.715966         0.175004        -0.058454
 O        -3.220871         0.914522        -1.205311
 C        -3.349568         0.621253         1.313542
 C        -4.837809         0.138690         1.440000
 C        -5.451978         0.163320         2.810232
 O        -5.048468         0.799724         3.795244
 H         1.898923        -0.737814        -0.643431
 H         2.081061         0.454469         0.777316
 H         1.462352        -1.039761         1.152673
 H        -2.951733        -0.900540        -0.197262
 H        -2.802961         1.812952        -1.148470
 H        -2.887390         0.110755         2.203903
 H        -3.484810         1.727525         1.408834
 H        -5.573781         0.553174         0.659951
 H        -4.941839        -0.978938         1.185590
 H        -6.494697        -0.196924         2.695500
