19
Iteration:   892charge 0 multiplicity 1
 C         1.483591        -0.311829        -0.307855
 C         0.127521        -0.130951        -0.251306
 C        -1.054934        -0.004585         0.027283
 C        -2.533214         0.268910         0.081033
 O        -2.959289         1.423328        -0.525049
 C        -3.206583         0.232221         1.429400
 C        -4.722033         0.466877         1.553970
 C        -5.290334         0.725525         2.950862
 O        -6.182644         0.060790         3.468725
 H         1.817621        -0.480093         0.710516
 H         1.699463        -1.185207        -0.905463
 H         2.049020         0.504438        -0.764874
 H        -2.908503        -0.625706        -0.324331
 H        -2.247782         1.717790        -1.081198
 H        -2.952547        -0.623402         2.007794
 H        -2.796974         0.976212         2.143927
 H        -5.026980         1.483468         1.033177
 H        -5.175798        -0.396798         1.068716
 H        -4.872769         1.673877         3.393696
