19
Iteration:  1085charge 0 multiplicity 1
 C         1.347733        -0.175737        -0.433134
 C         0.047388         0.078485         0.034132
 C        -1.181281        -0.038062         0.213624
 C        -2.540039         0.208534         0.137541
 O        -2.888589         1.305090        -0.692187
 C        -3.146762         0.202702         1.432267
 C        -4.605426         0.506750         1.600147
 C        -5.190725         0.076121         2.917466
 O        -6.187567         0.630634         3.387019
 H         1.859780        -0.773109         0.266681
 H         1.347996        -0.627879        -1.483432
 H         1.914551         0.743803        -0.535715
 H        -2.994095        -0.774396        -0.431036
 H        -2.243419         1.473187        -1.386473
 H        -2.931202        -0.786538         1.894583
 H        -2.576491         0.771947         2.137996
 H        -5.075540         1.461245         1.414694
 H        -5.265354        -0.273571         0.950847
 H        -4.624204        -0.722626         3.415043
