19
Iteration:   548charge 0 multiplicity 1
 C         1.334840        -0.470051         0.038268
 C        -0.089358        -0.228146        -0.109012
 C        -1.205625         0.151694        -0.018810
 C        -2.610140         0.294288        -0.034856
 O        -2.945419         1.453167        -0.819225
 C        -3.164360         0.638651         1.440297
 C        -4.718585         0.694029         1.558575
 C        -5.124945         0.571958         2.974549
 O        -5.835102        -0.292065         3.473520
 H         1.717390         0.012937         0.979354
 H         1.621906        -1.493145         0.076958
 H         1.868986        -0.013206        -0.809718
 H        -3.278754        -0.595218        -0.478743
 H        -3.022903         1.283934        -1.760518
 H        -2.751754        -0.200363         2.154480
 H        -2.768254         1.630622         1.659371
 H        -5.225048         1.446856         1.011891
 H        -5.164081        -0.069360         1.010936
 H        -4.595395         1.327914         3.674576
