19
Iteration:  2071
 C         1.469006         0.071175        -0.324187
 C         0.029000         0.054648        -0.122445
 C        -1.140292        -0.149823         0.195745
 C        -2.602820        -0.063284         0.163193
 O        -2.990606         1.101110        -0.554226
 C        -3.228851         0.043182         1.546154
 C        -4.772625        -0.178381         1.548539
 C        -5.653151         0.593910         2.481436
 O        -5.522047         1.206878         3.514160
 H         1.674946         0.117905        -1.429542
 H         1.952196         0.952792         0.161257
 H         2.076489        -0.749202         0.116455
 H        -2.727080        -0.928560        -0.485645
 H        -2.381166         1.833907        -0.269390
 H        -2.631920        -0.645375         2.208740
 H        -2.979258         1.030879         1.980959
 H        -5.259708        -0.291585         0.522703
 H        -5.049005        -1.189360         2.052857
 H        -6.693598         0.259101         2.105337
