19
Iteration:  1701charge 0 multiplicity 1
 C         1.326302         0.212171         0.554403
 C        -0.061708        -0.071373         0.005275
 C        -1.254521        -0.028598        -0.163484
 C        -2.780830        -0.005834        -0.087024
 O        -3.272987         1.070749        -0.910392
 C        -3.277232         0.100529         1.292905
 C        -4.733386         0.407526         1.315997
 C        -5.360066         0.843995         2.745554
 O        -4.960203         0.274155         3.706751
 H         2.151276        -0.488318         0.201115
 H         1.639577         1.208123         0.072893
 H         1.361491         0.126676         1.663994
 H        -3.193693        -1.002673        -0.424924
 H        -3.119192         0.811220        -1.867277
 H        -2.953883        -0.854747         1.804009
 H        -2.578899         0.862289         1.674642
 H        -5.144114         1.250009         0.682565
 H        -5.420901        -0.532178         1.119938
 H        -6.315595         1.344785         2.545663
