19
Iteration:   546
 C         1.335161        -0.480481         0.034647
 C        -0.073951        -0.222680        -0.111120
 C        -1.210401         0.166530        -0.024938
 C        -2.633559         0.287889        -0.006524
 O        -2.945481         1.458178        -0.826841
 C        -3.149955         0.621788         1.444019
 C        -4.716868         0.698933         1.569009
 C        -5.135258         0.588495         2.979394
 O        -5.840924        -0.299293         3.464253
 H         1.713309         0.010080         0.944850
 H         1.621267        -1.452432         0.050790
 H         1.840909        -0.020459        -0.827445
 H        -3.177642        -0.611130        -0.471228
 H        -2.989330         1.188148        -1.775208
 H        -2.704241        -0.150731         2.109995
 H        -2.830280         1.567857         1.719138
 H        -5.194748         1.501914         1.017694
 H        -5.111371        -0.111146         0.978024
 H        -4.593032         1.348108         3.617238
