19
Iteration:  3357
 C         1.158504        -0.150299         0.164612
 C        -0.120631         0.136316        -0.128649
 C        -1.352759         0.118053        -0.250227
 C        -2.825651         0.146065        -0.003157
 O        -3.399998         1.322359        -0.581807
 C        -3.016224         0.021118         1.532310
 C        -4.261027        -0.662031         2.109422
 C        -5.385887         0.300228         2.609689
 O        -5.168553         1.453318         2.927114
 H         1.287482        -1.265455        -0.085350
 H         1.789281         0.450666        -0.601443
 H         1.556886        -0.116008         1.203146
 H        -3.391729        -0.609732        -0.506947
 H        -2.938074         2.126202        -0.276110
 H        -2.117212        -0.448984         1.937469
 H        -3.064932         1.042633         1.924056
 H        -4.770238        -1.023052         1.236934
 H        -4.215163        -1.526955         2.882371
 H        -6.411800        -0.157702         2.504803
