19
Iteration:  1466
 C         1.535014        -0.170484        -0.163908
 C         0.036863         0.003174        -0.061721
 C        -1.143170         0.063280         0.052358
 C        -2.592902         0.173811         0.158800
 O        -3.060072         1.344230        -0.637912
 C        -3.271116         0.297650         1.573126
 C        -4.825861         0.261043         1.366822
 C        -5.324004        -0.038533         2.734598
 O        -5.711414         0.823515         3.520666
 H         1.749918        -1.245337        -0.191278
 H         1.883682         0.219142        -1.208723
 H         2.171510         0.269219         0.616337
 H        -2.816195        -0.818810        -0.372780
 H        -3.204953         1.107008        -1.550393
 H        -2.798090        -0.332559         2.315940
 H        -2.925089         1.322689         1.846533
 H        -5.106829         1.194081         0.880094
 H        -5.107518        -0.682476         0.726216
 H        -5.504319        -1.020154         3.081617
