19
Iteration:  1588charge 0 multiplicity 1
 C         1.430765        -0.097876        -0.334291
 C         0.047668        -0.014998         0.021184
 C        -1.116146         0.068959         0.359059
 C        -2.569493         0.155377         0.225087
 O        -2.967424         1.021109        -0.763732
 C        -3.317867         0.525078         1.495507
 C        -4.912099         0.330720         1.326062
 C        -5.696390         0.248471         2.550636
 O        -5.256608         0.534799         3.612328
 H         1.798416        -1.138583        -0.605205
 H         1.843380         0.642342        -1.012896
 H         1.983800        -0.013432         0.657360
 H        -2.913396        -0.851104         0.174337
 H        -2.921616         1.903110        -0.335710
 H        -3.094249        -0.010900         2.415760
 H        -3.433209         1.627296         1.615265
 H        -5.308080         1.089545         0.613883
 H        -5.072390        -0.662057         0.749860
 H        -6.695846        -0.318520         2.613659
