19
Iteration:  4923charge 0 multiplicity 1
 C         1.226687         0.271792         0.595128
 C        -0.129743         0.269620         0.004905
 C        -1.344450         0.197262         0.004598
 C        -2.709898         0.083470         0.338534
 O        -3.457499        -0.443020        -0.866152
 C        -3.520655         1.254117         0.887202
 C        -5.027756         1.076694         1.274858
 C        -5.190715         0.461794         2.751485
 O        -4.297313        -0.063385         3.416773
 H         2.157418        -0.036325         0.127943
 H         1.266471         1.317359         0.845772
 H         1.209264        -0.374584         1.565642
 H        -2.758657        -0.680392         1.183551
 H        -2.843265        -0.446564        -1.650195
 H        -2.965126         1.563904         1.796723
 H        -3.299754         2.058257         0.233700
 H        -5.517843         2.037585         1.224033
 H        -5.607426         0.388123         0.580857
 H        -6.193992         0.589288         3.164469
