19
Iteration:  3146
 C         1.095213         0.719917        -0.493457
 C        -0.296449         0.282087        -0.122266
 C        -1.256955        -0.309532         0.352074
 C        -2.690194        -0.281474         0.447039
 O        -3.117379         1.078853         0.142263
 C        -3.407028        -0.858265         1.851000
 C        -4.912107        -0.640426         1.694313
 C        -5.313230         0.841881         2.095529
 O        -4.593647         1.739185         2.480958
 H         1.773762        -0.065403         0.107199
 H         1.368254         0.614723        -1.557083
 H         1.329413         1.763818        -0.062145
 H        -3.193048        -0.856852        -0.295051
 H        -2.317389         1.608009         0.309381
 H        -3.035757        -1.898452         1.765685
 H        -3.099917        -0.435745         2.815604
 H        -5.376480        -0.917113         0.802597
 H        -5.251292        -1.231133         2.474707
 H        -6.441921         1.067492         1.946208
