19
Iteration:   196
 C         1.500299        -0.050040         0.052265
 C        -0.025381         0.003743        -0.054447
 C        -1.252915        -0.030915        -0.125631
 C        -2.813752         0.193279        -0.129214
 O        -3.075321         1.517850        -0.653758
 C        -3.155007        -0.187405         1.321685
 C        -4.583569        -0.139738         1.639243
 C        -4.927280         0.648514         2.917209
 O        -6.035200         0.674055         3.435190
 H         1.837740         0.367801         1.015801
 H         1.863112        -1.142046         0.091120
 H         2.081369         0.486867        -0.727733
 H        -3.243642        -0.572260        -0.903455
 H        -2.913380         2.194050         0.010125
 H        -2.880126        -1.217057         1.255295
 H        -2.653532         0.493255         2.021949
 H        -5.124371         0.579174         0.847731
 H        -5.093730        -1.082744         1.509430
 H        -4.053050         1.339475         3.095908
