19
Iteration:  4494charge 0 multiplicity 1
 C         1.268124         0.404679        -0.275636
 C        -0.142093         0.211469         0.075762
 C        -1.261333         0.030390         0.511972
 C        -2.699368        -0.123988         0.645979
 O        -3.134358        -0.153000        -0.733570
 C        -3.340529         1.117238         1.208417
 C        -4.838926         1.269609         1.394226
 C        -5.438021         0.524011         2.549087
 O        -4.844553        -0.264988         3.260300
 H         1.905431         0.340679         0.624525
 H         1.630454        -0.220816        -1.115244
 H         1.275930         1.424600        -0.703686
 H        -3.120163        -1.037368         1.133545
 H        -2.643886        -0.937395        -1.045735
 H        -2.610957         1.531246         1.934146
 H        -3.209452         1.916265         0.422578
 H        -5.141731         2.262199         1.767409
 H        -5.492418         1.098005         0.570170
 H        -6.501007         0.796640         2.848100
