19
Iteration:  1733charge 0 multiplicity 1
 C         1.179421         0.184454         0.742514
 C        -0.128019         0.014257         0.095351
 C        -1.287127         0.015932        -0.253110
 C        -2.843574        -0.098562        -0.170377
 O        -3.420895         0.925318        -0.984590
 C        -3.216737         0.132251         1.250887
 C        -4.636525         0.544552         1.308751
 C        -5.240920         0.717763         2.685754
 O        -4.822982         0.279770         3.740273
 H         2.025272        -0.470385         0.352004
 H         1.616726         1.219338         0.624605
 H         1.180757         0.071546         1.857159
 H        -3.229382        -1.041233        -0.706763
 H        -2.762785         1.413717        -1.493869
 H        -3.117653        -0.905320         1.661324
 H        -2.508885         0.933887         1.603171
 H        -4.666726         1.629556         0.919609
 H        -5.437530         0.017692         0.640654
 H        -6.122296         1.453371         2.706343
