19
Iteration:   102
 C         1.388487         0.088610         0.068154
 C        -0.048363        -0.131351        -0.092745
 C        -1.256375         0.009153        -0.107055
 C        -2.745045         0.077641        -0.129382
 O        -2.934848         1.408634        -0.434936
 C        -3.194227        -0.261886         1.396811
 C        -4.700223         0.175034         1.456447
 C        -4.947056         0.814085         2.757738
 O        -5.874029         0.480441         3.473026
 H         1.639668         0.600919         1.063821
 H         1.979077        -0.761617         0.034943
 H         1.763774         0.792868        -0.720490
 H        -3.357725        -0.524531        -0.737582
 H        -3.815164         1.589970        -0.859378
 H        -3.331037        -1.372305         1.413887
 H        -2.466063         0.151693         1.984584
 H        -4.826874         0.993773         0.742154
 H        -5.380410        -0.709950         1.205923
 H        -4.251160         1.514473         3.245249
