19
Iteration:   740charge 0 multiplicity 1
 C         1.280552        -0.579565         0.188036
 C        -0.096679        -0.042560         0.145596
 C        -1.206659         0.284331        -0.152344
 C        -2.702980         0.284302        -0.162375
 O        -3.077695         1.594446        -0.631626
 C        -3.217584         0.181279         1.215201
 C        -4.752143         0.379694         1.273434
 C        -5.169394         0.743094         2.828085
 O        -5.484513        -0.059036         3.722145
 H         1.754039        -0.547755         1.192700
 H         1.254329        -1.628597        -0.163704
 H         1.909532         0.079459        -0.474530
 H        -3.123018        -0.500911        -0.882323
 H        -2.316009         2.175326        -0.831847
 H        -3.136220        -0.755116         1.615521
 H        -2.720130         1.018674         1.813145
 H        -4.973857         1.092770         0.568207
 H        -5.275854        -0.505938         0.977002
 H        -5.019576         1.749962         2.897519
