19
Iteration:  2036charge 0 multiplicity 1
 C         1.596434        -0.152837        -0.207879
 C         0.099893         0.060323        -0.029540
 C        -1.130141         0.113617         0.135675
 C        -2.592368         0.118676         0.169165
 O        -3.103770         1.008525        -0.801351
 C        -3.304404         0.240126         1.639283
 C        -4.834396        -0.188987         1.568151
 C        -5.649437         0.398806         2.571189
 O        -5.388924         1.107330         3.501426
 H         1.717087        -0.090110        -1.355599
 H         2.004422         0.789237         0.021285
 H         2.029616        -1.140621         0.164001
 H        -3.039588        -0.903398        -0.153907
 H        -2.758264         1.909834        -0.548279
 H        -2.591047        -0.442542         2.199041
 H        -3.381283         1.282428         2.016291
 H        -5.252569         0.393670         0.686075
 H        -5.295560        -1.221439         1.449752
 H        -6.784359         0.261971         2.348623
