19
Iteration:  3566charge 0 multiplicity 1
 C         1.253612         0.404679        -0.379356
 C        -0.048984         0.107911         0.101318
 C        -1.220120        -0.282977         0.301607
 C        -2.672200        -0.191432         0.229226
 O        -3.151980         0.603998        -0.869809
 C        -3.142118         0.166472         1.630088
 C        -4.677763         0.121264         1.470037
 C        -5.529098         0.662034         2.523154
 O        -5.195266         1.109387         3.608906
 H         1.337996         0.200392        -1.421562
 H         1.454119         1.491386        -0.234162
 H         1.983485        -0.203812         0.073994
 H        -3.030540        -1.282134        -0.009837
 H        -2.545714         1.370220        -0.984657
 H        -2.913188        -0.649851         2.279159
 H        -2.685030         1.023054         2.123419
 H        -5.077155         0.691355         0.547104
 H        -4.947149        -1.016212         1.251434
 H        -6.588752         0.857850         2.225112
