19
Iteration:  3561
 C         1.287045         0.402370        -0.404016
 C        -0.043330         0.085417         0.129074
 C        -1.192363        -0.289471         0.288540
 C        -2.673492        -0.146422         0.249615
 O        -3.173408         0.614663        -0.866785
 C        -3.164168         0.125246         1.646774
 C        -4.677327         0.124334         1.430660
 C        -5.544046         0.640308         2.534498
 O        -5.203901         1.139559         3.606128
 H         1.256205         0.182778        -1.525513
 H         1.422087         1.476716        -0.293982
 H         2.156114        -0.189436         0.055541
 H        -2.969899        -1.130829         0.043857
 H        -2.556239         1.365696        -0.836935
 H        -2.676967        -0.730513         2.256250
 H        -2.728211         1.041601         2.103659
 H        -5.096991         0.544913         0.527603
 H        -5.056984        -0.879109         1.309549
 H        -6.629280         0.702385         2.217157
