19
Iteration:  4895
 C         1.219829         0.279384         0.613860
 C        -0.200659         0.115346         0.203921
 C        -1.373653         0.279355        -0.032486
 C        -2.736456         0.041226         0.251854
 O        -3.564881        -0.398733        -0.888262
 C        -3.524033         1.261691         1.035439
 C        -4.859205         0.952828         1.294129
 C        -5.158137         0.334299         2.626022
 O        -4.219598         0.160760         3.363299
 H         2.088133        -0.117949         0.041825
 H         1.262871         1.392955         0.630037
 H         1.310566        -0.077582         1.602836
 H        -2.771532        -0.735431         1.003523
 H        -3.471327         0.239762        -1.616689
 H        -2.963055         1.428325         1.960406
 H        -3.277144         2.177369         0.437877
 H        -5.519943         1.848225         1.093922
 H        -5.232574         0.153384         0.674835
 H        -6.273199         0.024698         2.822782
