19
Iteration:  1388charge 0 multiplicity 1
 C         1.352674         0.011982         0.144256
 C        -0.050720         0.042027        -0.027689
 C        -1.224059        -0.102623        -0.269081
 C        -2.718375         0.098586        -0.202792
 O        -2.855103         1.511119        -0.688018
 C        -3.261098        -0.133298         1.237613
 C        -4.785516         0.017564         1.532060
 C        -5.101196         0.133589         3.021932
 O        -5.765883         1.040960         3.555712
 H         1.681636        -0.981913         0.412653
 H         1.991729         0.303722        -0.773588
 H         1.635030         0.685427         0.952879
 H        -3.248328        -0.613051        -0.942375
 H        -2.723935         2.064531         0.096167
 H        -2.888359        -1.112167         1.490240
 H        -2.637146         0.533102         1.858620
 H        -5.172956         0.891235         0.953923
 H        -5.458898        -0.878597         1.300931
 H        -4.805242        -0.758635         3.699696
