19
Iteration:   501
 C         1.445603        -0.538094        -0.225452
 C         0.077037        -0.035365         0.014185
 C        -1.141497         0.138249         0.030175
 C        -2.579586         0.264377         0.111917
 O        -3.203867         1.309504        -0.764966
 C        -3.039473         0.568964         1.533792
 C        -4.598332         0.750640         1.569604
 C        -5.328256         0.690184         2.955884
 O        -5.934231        -0.300679         3.341042
 H         2.144762        -0.272650         0.536955
 H         1.423626        -1.606270        -0.263071
 H         1.838862        -0.216112        -1.190282
 H        -3.179597        -0.642172        -0.229400
 H        -2.478371         1.813606        -1.220743
 H        -2.865153        -0.291651         2.160194
 H        -2.425176         1.436471         1.774772
 H        -4.857799         1.623710         0.955343
 H        -5.161256         0.087552         0.909278
 H        -5.291152         1.592892         3.645868
