19
Iteration:   276
 C         1.410321        -0.279419        -0.147404
 C         0.055943         0.176056        -0.191852
 C        -1.170428         0.204345        -0.056628
 C        -2.597481         0.162528         0.002918
 O        -3.173916         1.341055        -0.553094
 C        -3.016487        -0.100245         1.538911
 C        -4.579731         0.150199         1.612425
 C        -5.074590         0.698106         2.871476
 O        -6.202656         0.476204         3.329739
 H         1.997207         0.083260         0.729550
 H         1.453678        -1.308681        -0.152473
 H         1.964711         0.051592        -1.037242
 H        -2.909411        -0.843633        -0.440139
 H        -2.468619         1.882495        -0.905682
 H        -2.735041        -1.069696         1.710770
 H        -2.311364         0.434589         2.254443
 H        -4.993822         0.868105         0.872435
 H        -5.074913        -0.870461         1.553182
 H        -4.276776         1.324419         3.603236
