19
Iteration:  1203charge 0 multiplicity 1
 C         1.453556        -0.146963        -0.004068
 C        -0.030849        -0.056178         0.101264
 C        -1.267527         0.043911        -0.204716
 C        -2.749795         0.214639        -0.080096
 O        -3.167042         1.467379        -0.553270
 C        -3.122585         0.110622         1.492955
 C        -4.594591         0.075833         1.454217
 C        -5.146129         0.049515         2.847650
 O        -5.770692         0.918107         3.392986
 H         1.856474        -0.979849         0.534531
 H         1.679221        -0.299134        -1.122220
 H         1.938085         0.775421         0.270844
 H        -3.116104        -0.656011        -0.517876
 H        -2.440912         2.010029        -0.875530
 H        -2.669356        -0.713858         2.158897
 H        -2.611397         1.011703         1.956978
 H        -5.052652         0.881375         0.845707
 H        -4.972808        -0.923894         1.003835
 H        -5.145913        -0.991584         3.201539
