19
Iteration:  3754
 C         1.243884         0.414149         0.466921
 C        -0.164205        -0.060645         0.288596
 C        -1.327947        -0.078630         0.016301
 C        -2.807607         0.003635         0.083815
 O        -3.434014        -0.170955        -1.172202
 C        -3.451836         1.076849         0.917857
 C        -4.871192         0.771709         1.340661
 C        -5.177405         0.464596         2.784287
 O        -4.451946         0.499085         3.807354
 H         1.623064         0.997641        -0.382991
 H         1.383619         1.038169         1.388192
 H         1.933625        -0.448069         0.547800
 H        -2.984556        -0.915224         0.667288
 H        -2.767808        -0.466632        -1.808301
 H        -2.861719         1.183151         1.792613
 H        -3.279343         2.005603         0.393742
 H        -5.543429         1.611637         1.029437
 H        -5.343571        -0.046593         0.688485
 H        -6.301931         0.401259         2.917228
