19
Iteration:    82
 C         1.409012         0.026580        -0.003378
 C        -0.012642         0.004691         0.026358
 C        -1.217958        -0.073212        -0.058151
 C        -2.580792         0.045707        -0.047612
 O        -2.967264         1.478634        -0.550063
 C        -3.287077        -0.287441         1.242182
 C        -4.750587         0.213987         1.437633
 C        -5.000782         0.794712         2.825983
 O        -5.895099         0.452661         3.563690
 H         1.940036         0.480239         0.900623
 H         1.856912        -1.007789        -0.166904
 H         1.692522         0.695663        -0.866673
 H        -3.011495        -0.635531        -0.917708
 H        -3.855637         1.304463        -0.869089
 H        -2.896315        -1.366104         1.567189
 H        -2.661698         0.219799         1.966986
 H        -4.852135         1.234180         0.866868
 H        -5.612749        -0.496581         1.166544
 H        -4.534851         1.728038         3.243156
