19
Iteration:  3421charge 0 multiplicity 1
 C         1.487347        -0.128815        -0.131174
 C         0.001341        -0.104783        -0.070773
 C        -1.167272         0.211047        -0.034517
 C        -2.661095         0.132204         0.135805
 O        -3.581057         1.265487        -0.507041
 C        -3.097357         0.011635         1.571745
 C        -4.534904        -0.488916         1.850951
 C        -5.402841         0.277848         2.795451
 O        -5.367567         1.487765         2.911653
 H         1.821272        -0.926388        -0.803259
 H         1.661353         0.788745        -0.635905
 H         2.079286        -0.245937         0.770068
 H        -3.218110        -0.765023        -0.379104
 H        -2.874603         1.834821        -0.864088
 H        -2.293973        -0.558194         2.029448
 H        -2.949254         1.028053         1.916977
 H        -5.095361        -0.437037         0.897801
 H        -4.351359        -1.627804         1.887692
 H        -6.132433        -0.272817         3.463082
