19
Iteration:   808
 C         1.342809        -0.285679        -0.070440
 C        -0.035283        -0.373544        -0.015776
 C        -1.200679        -0.007176        -0.028321
 C        -2.622722         0.294971        -0.067946
 O        -2.814669         1.660964        -0.450869
 C        -3.311182         0.287888         1.340393
 C        -4.863206         0.294147         1.348672
 C        -5.254345         0.718051         2.749897
 O        -5.634786         0.030021         3.653088
 H         1.777716        -0.096419         0.995318
 H         1.807176        -1.150203        -0.487783
 H         1.510758         0.681646        -0.650130
 H        -3.185792        -0.493336        -0.754033
 H        -2.573566         1.663859        -1.421654
 H        -3.038292        -0.641665         1.832735
 H        -3.000882         1.308496         1.721090
 H        -5.339979         1.048940         0.766459
 H        -5.325494        -0.678347         0.909655
 H        -5.118208         1.901405         2.970197
