19
Iteration:  3363charge 0 multiplicity 1
 C         1.209142        -0.205593         0.170431
 C        -0.146441         0.235172        -0.206139
 C        -1.327339         0.091155        -0.221782
 C        -2.846276         0.140116         0.007592
 O        -3.368824         1.305985        -0.556119
 C        -3.030789         0.021861         1.566984
 C        -4.291912        -0.643180         2.105795
 C        -5.359498         0.293554         2.606162
 O        -5.190138         1.451150         2.916635
 H         1.211378        -1.185626        -0.260365
 H         1.909860         0.275124        -0.449021
 H         1.376659         0.031313         1.225224
 H        -3.476706        -0.675778        -0.564697
 H        -2.958435         2.188337        -0.518817
 H        -2.188073        -0.440295         2.103594
 H        -3.080611         1.062995         1.941265
 H        -4.845381        -1.040281         1.178940
 H        -4.114449        -1.588978         2.638698
 H        -6.387779        -0.142490         2.741752
