19
Iteration:  2768
 C         1.440128        -0.187674        -0.258694
 C         0.045726        -0.087083         0.138112
 C        -1.173729         0.133758         0.264582
 C        -2.660003         0.171712         0.078938
 O        -3.150567         0.620261        -1.200855
 C        -3.437039         0.777639         1.256689
 C        -4.608199        -0.065032         1.711286
 C        -5.211758         0.186690         3.116651
 O        -5.578199         1.270185         3.534484
 H         2.195326         0.517632        -0.000885
 H         1.767308        -1.177035        -0.162180
 H         1.256359         0.113309        -1.303731
 H        -2.694697        -0.917492         0.004570
 H        -2.923911         1.561679        -0.951177
 H        -2.815030         0.667422         2.146522
 H        -3.683932         1.791529         0.904335
 H        -5.553349        -0.199892         1.048334
 H        -4.238758        -1.174902         1.856650
 H        -5.410567        -0.820095         3.602055
