19
Iteration:  2281charge 0 multiplicity 1
 C         1.078897         0.254640         0.469172
 C        -0.292207         0.238076        -0.093619
 C        -1.478272         0.090562        -0.057155
 C        -2.890802         0.003064         0.040537
 O        -3.584137         1.203469        -0.045198
 C        -3.200842        -0.723835         1.348308
 C        -4.622355        -0.615885         1.808555
 C        -5.135152         0.728193         2.158719
 O        -4.322934         1.507034         2.583143
 H         1.839636         0.864065        -0.034683
 H         1.018709         0.423580         1.640242
 H         1.418380        -0.777721         0.518242
 H        -3.449829        -0.486399        -0.822356
 H        -3.224665         1.891388         0.532772
 H        -2.819794        -1.770434         1.141455
 H        -2.615496        -0.319337         2.251322
 H        -5.459882        -1.047734         1.161536
 H        -4.499685        -1.091696         2.748088
 H        -6.199907         1.041551         2.308130
