19
Iteration:    46
 C         1.545970        -0.089868        -0.087089
 C         0.083569         0.030712         0.065980
 C        -1.128540         0.074447         0.018311
 C        -2.632863         0.070278        -0.060793
 O        -2.952346         1.393085        -0.671284
 C        -3.357448        -0.086841         1.252206
 C        -4.902578         0.289704         1.432457
 C        -5.040639         0.732698         2.916718
 O        -5.946105         0.337877         3.655380
 H         2.140670         0.265994         0.801337
 H         1.822906        -1.054998        -0.336683
 H         1.796575         0.565535        -0.956509
 H        -2.968582        -0.716506        -0.715156
 H        -3.100755         1.129705        -1.579190
 H        -3.255749        -1.099388         1.666833
 H        -2.871502         0.515366         1.964522
 H        -5.132518         1.167756         0.822702
 H        -5.650749        -0.511481         1.182608
 H        -4.241749         1.545936         3.141619
