19
Iteration:  4227
 C         1.320411         0.281893        -0.581349
 C         0.052376         0.481203         0.084682
 C        -1.164087         0.302748         0.264230
 C        -2.510113         0.030781         0.861795
 O        -3.455659        -0.657417        -0.144862
 C        -3.223166         1.364655         1.603115
 C        -4.711646         1.376948         1.300333
 C        -5.471669         0.356206         2.082021
 O        -5.169600        -0.282333         3.081560
 H         2.182794         0.600107         0.035533
 H         1.511609        -0.770846        -0.871683
 H         1.258214         0.866015        -1.541006
 H        -2.193985        -0.789114         1.596171
 H        -2.849526        -0.591318        -0.930892
 H        -3.048829         1.095285         2.650915
 H        -2.697990         2.298285         1.401526
 H        -5.264266         2.279179         1.643636
 H        -4.918620         1.276453         0.160814
 H        -6.496080         0.123696         1.681450
