19
Iteration:  1762charge 0 multiplicity 1
 C         1.111742         0.151136         0.775259
 C        -0.236421         0.198277         0.278504
 C        -1.295423        -0.075132        -0.212011
 C        -2.839725        -0.099261        -0.269310
 O        -3.323016         0.836055        -1.225144
 C        -3.284197         0.169841         1.219475
 C        -4.678829         0.707569         1.409056
 C        -5.255674         0.625402         2.736419
 O        -4.632649         0.280773         3.715225
 H         1.619611        -0.594059         0.109146
 H         1.589067         1.086160         0.805094
 H         1.128353        -0.113779         1.855454
 H        -3.244226        -0.942088        -0.840378
 H        -2.891151         1.739732        -1.163310
 H        -3.379417        -0.862760         1.698367
 H        -2.410791         0.491080         1.849163
 H        -4.801244         1.697265         0.987701
 H        -5.343480         0.170435         0.784107
 H        -6.229172         1.058967         2.986719
