19
Iteration:  4105
 C         1.168359         0.685560        -0.492192
 C         0.032217         0.255409         0.226695
 C        -1.102570        -0.145847         0.540783
 C        -2.540396        -0.195384         0.629320
 O        -3.238088        -0.376646        -0.599916
 C        -3.100590         1.123150         1.296558
 C        -4.618209         1.282998         1.385665
 C        -5.594714         0.600763         2.407258
 O        -5.241974        -0.170051         3.295063
 H         1.456766         1.707198        -0.154553
 H         2.038538         0.133126        -0.310193
 H         0.836794         0.792255        -1.549704
 H        -2.854412        -1.103469         1.215674
 H        -3.441582        -1.331740        -0.755004
 H        -2.633382         1.361266         2.243420
 H        -2.849357         1.817248         0.534835
 H        -5.021358         2.302695         1.243758
 H        -5.016322         0.765613         0.414082
 H        -6.765015         0.708569         2.259087
