19
Iteration:  4830charge 0 multiplicity 1
 C         1.199975         0.301307         0.416677
 C        -0.263107         0.210492         0.380966
 C        -1.472651         0.035605         0.315211
 C        -2.928947        -0.088609         0.226813
 O        -3.287063        -0.214071        -1.194820
 C        -3.570190         1.211249         0.824201
 C        -4.979521         1.032551         1.391286
 C        -4.977487         0.123060         2.624136
 O        -4.260641         0.328000         3.612976
 H         1.827871        -0.498014        -0.026400
 H         1.452295         1.343232         0.064137
 H         1.576516         0.258823         1.390156
 H        -3.193965        -1.032286         0.639104
 H        -2.606581         0.204092        -1.725274
 H        -3.044628         1.440979         1.751228
 H        -3.526083         2.144631         0.241996
 H        -5.441836         2.021649         1.727623
 H        -5.659479         0.756589         0.599898
 H        -5.704539        -0.666907         2.668835
