19
Iteration:  3691charge 0 multiplicity 1
 C         1.248487         0.374050         0.360183
 C        -0.190984         0.416344         0.144976
 C        -1.289132        -0.084998         0.034277
 C        -2.694964        -0.350643         0.096812
 O        -3.521129        -0.000860        -1.046517
 C        -3.217723         0.612549         1.233811
 C        -4.791802         0.736250         1.258037
 C        -5.318610         0.683060         2.707819
 O        -4.625803         0.642854         3.703110
 H         1.770444         0.578836        -0.600391
 H         1.537077         1.013161         1.137120
 H         1.434577        -0.686900         0.654629
 H        -2.808073        -1.472020         0.317503
 H        -2.950989        -0.232168        -1.800226
 H        -2.891410         0.225216         2.245672
 H        -2.772162         1.604398         1.095668
 H        -5.414222         1.434084         0.742926
 H        -5.061652        -0.334848         1.015619
 H        -6.436793         0.692557         2.829654
