19
Iteration:  2972
 C         1.279968         0.012823         0.117420
 C        -0.105739         0.271649         0.035145
 C        -1.276856         0.318597        -0.191643
 C        -2.693541        -0.112268         0.013859
 O        -3.778006         0.683787        -0.637116
 C        -2.934452        -0.237711         1.561052
 C        -4.427650        -0.459572         1.846920
 C        -5.330392         0.709065         2.443477
 O        -5.001885         1.649155         3.178867
 H         1.602401        -0.106637         1.118231
 H         1.605418        -0.823081        -0.465912
 H         1.819794         0.884075        -0.242849
 H        -2.819023        -1.153216        -0.340885
 H        -4.038641         1.363278         0.042910
 H        -2.372593        -0.963208         2.173600
 H        -2.569400         0.769219         1.867925
 H        -4.862777        -0.772668         0.755980
 H        -4.669630        -1.420794         2.530280
 H        -6.370076         0.654522         2.137215
