19
Iteration:  4534charge 0 multiplicity 1
 C         1.177342         0.511122        -0.214811
 C        -0.081782        -0.045798         0.436745
 C        -1.289422        -0.133719         0.467013
 C        -2.791301        -0.000132         0.461011
 O        -3.319294        -0.124362        -0.904863
 C        -3.300114         1.249402         1.227542
 C        -4.808551         1.091552         1.307423
 C        -5.306848         0.418643         2.500677
 O        -4.694834        -0.090102         3.452208
 H         2.093252         0.544234         0.386813
 H         1.507027         0.171606        -1.256745
 H         0.815666         1.514773        -0.358969
 H        -3.054315        -0.870492         1.033732
 H        -2.681422         0.102812        -1.622135
 H        -2.992404         1.232424         2.281339
 H        -2.824151         2.107456         0.761819
 H        -5.298412         2.059940         1.213213
 H        -5.160864         0.582017         0.291737
 H        -6.366491         0.577992         2.474628
