19
Iteration:  2487charge 0 multiplicity 1
 C         1.208204         0.704397        -0.023652
 C        -0.203885         0.262471         0.138581
 C        -1.330556        -0.103830         0.502483
 C        -2.788546        -0.321149         0.065672
 O        -3.249557         0.851447        -0.548567
 C        -3.684017        -0.805956         1.288471
 C        -5.099753        -0.187504         1.401149
 C        -5.122939         0.927337         2.540457
 O        -4.205754         1.324681         3.232249
 H         1.052163         1.813026        -0.268832
 H         1.507254         0.582498         1.059851
 H         1.774743         0.147252        -0.837501
 H        -2.748585        -0.989868        -0.812721
 H        -2.487861         1.266420        -1.040918
 H        -3.693805        -1.896696         1.271616
 H        -3.195354        -0.230173         2.115494
 H        -5.611715         0.360096         0.501950
 H        -5.886537        -1.124919         1.498799
 H        -6.145029         1.312579         2.799972
