19
Iteration:  2034
 C         1.581522        -0.164704        -0.197007
 C         0.095276         0.049272        -0.015247
 C        -1.114091         0.137038         0.133884
 C        -2.593141         0.133802         0.170179
 O        -3.116977         1.001500        -0.816168
 C        -3.315216         0.239727         1.628689
 C        -4.828062        -0.184874         1.556429
 C        -5.628728         0.392814         2.573631
 O        -5.381707         1.100528         3.501829
 H         1.723256        -0.114713        -1.321430
 H         2.020347         0.795107         0.011946
 H         2.042555        -1.124135         0.132974
 H        -3.132248        -0.848426        -0.039075
 H        -2.784661         1.897764        -0.584389
 H        -2.665331        -0.409297         2.262424
 H        -3.415412         1.265492         2.040510
 H        -5.214790         0.419336         0.717521
 H        -5.254674        -1.173636         1.406557
 H        -6.718272         0.191940         2.375234
