19
Iteration:  3937charge 0 multiplicity 1
 C         1.246489         0.168941         0.485603
 C        -0.167957         0.359162         0.146451
 C        -1.407084         0.383605         0.078512
 C        -2.808583        -0.022184         0.395091
 O        -3.349856        -0.752177        -0.644279
 C        -3.570454         1.445365         0.883594
 C        -5.018879         1.295588         1.419010
 C        -5.181759         0.364751         2.595335
 O        -4.193599        -0.046609         3.132737
 H         1.798299         1.092427         0.433968
 H         1.249323        -0.206680         1.562039
 H         1.717910        -0.601730        -0.084853
 H        -2.760514        -0.724742         1.266267
 H        -3.416403        -0.031142        -1.316813
 H        -2.902630         1.942897         1.594168
 H        -3.662193         1.894439        -0.132540
 H        -5.483734         2.315614         1.491514
 H        -5.684850         0.746218         0.565343
 H        -6.240442         0.096613         2.929840
