19
Iteration:  2131
 C         1.361888         0.332696        -0.369738
 C         0.002297        -0.100641        -0.066558
 C        -1.160073        -0.225194         0.264642
 C        -2.622274        -0.169893         0.229729
 O        -3.106533         1.142090        -0.255232
 C        -3.215090        -0.210759         1.651666
 C        -4.833174        -0.245583         1.479352
 C        -5.609837         0.645872         2.333638
 O        -5.218314         1.369572         3.203060
 H         1.328119         0.674900        -1.429010
 H         1.546450         1.318173         0.138151
 H         2.269832        -0.310121        -0.329238
 H        -3.020772        -1.053226        -0.347068
 H        -2.353815         1.606163         0.174731
 H        -2.890009        -1.104857         2.202725
 H        -2.908161         0.742795         2.170631
 H        -4.988004         0.154919         0.468016
 H        -5.147136        -1.358755         1.437712
 H        -6.732192         0.597689         2.260590
