19
Iteration:  2671
 C         1.424885        -0.103623         0.143395
 C        -0.057712         0.060718        -0.018970
 C        -1.241341         0.317393        -0.169011
 C        -2.706532         0.040948         0.033718
 O        -3.572933         0.713791        -0.860030
 C        -3.092922         0.301181         1.478686
 C        -4.547087        -0.153325         1.664334
 C        -5.472594         0.355532         2.746896
 O        -5.098416         1.288492         3.446675
 H         2.091406         0.745739         0.433293
 H         1.728012        -0.900069         0.795209
 H         1.756060        -0.276090        -0.910454
 H        -2.870948        -1.022722        -0.310856
 H        -3.211177         1.595768        -1.123688
 H        -2.258633        -0.100703         2.178632
 H        -3.085450         1.451963         1.628151
 H        -5.008733        -0.180844         0.656692
 H        -4.611309        -1.216094         2.081769
 H        -6.488167        -0.185127         2.805751
