19
Iteration:   398charge 0 multiplicity 1
 C         1.436353        -0.195023        -0.543460
 C         0.090190        -0.087158        -0.015821
 C        -1.112165        -0.208738         0.115256
 C        -2.530837         0.181926         0.233081
 O        -2.808329         1.361530        -0.773171
 C        -3.153137         0.502003         1.596574
 C        -4.717024         0.584597         1.605211
 C        -5.296752         0.609795         3.033972
 O        -6.276310        -0.044216         3.357784
 H         2.208729         0.250634         0.113869
 H         1.709918        -1.282027        -0.623610
 H         1.564565         0.156230        -1.565292
 H        -3.097110        -0.714593        -0.152750
 H        -2.050314         1.228452        -1.343254
 H        -2.787463        -0.096595         2.339446
 H        -2.684412         1.456343         2.036661
 H        -4.912437         1.618489         1.088619
 H        -5.320050        -0.316225         1.099670
 H        -4.914813         1.708652         3.536462
