19
Iteration:  1869charge 0 multiplicity 1
 C         1.165703         0.018249         0.663883
 C        -0.262553         0.030701         0.275705
 C        -1.437120        -0.168470        -0.009235
 C        -2.823536        -0.002259        -0.150605
 O        -3.145950         1.006716        -1.279502
 C        -3.351778         0.694424         1.118042
 C        -4.799212         0.248402         1.356587
 C        -5.239710         0.527150         2.762308
 O        -4.593270         0.361502         3.781871
 H         1.755270        -0.396843        -0.152549
 H         1.474954         1.096262         0.698137
 H         1.317402        -0.586131         1.555854
 H        -3.255453        -0.960113        -0.452295
 H        -2.414996         1.682239        -1.339654
 H        -2.963595         0.272615         2.043748
 H        -3.291891         1.798821         1.041454
 H        -5.500023         0.835120         0.692018
 H        -4.960596        -0.859985         1.085764
 H        -6.345698         0.786535         2.759676
