19
Iteration:   534
 C         1.393895        -0.499330        -0.037806
 C        -0.061679        -0.172707        -0.084556
 C        -1.199702         0.176860        -0.036176
 C        -2.682689         0.366128         0.095872
 O        -2.998413         1.441487        -0.878162
 C        -3.141438         0.571674         1.498707
 C        -4.668228         0.644118         1.542303
 C        -5.186585         0.622341         3.004639
 O        -5.855306        -0.288437         3.403222
 H         1.832937        -0.068586         0.849629
 H         1.493891        -1.538260         0.001511
 H         1.952424        -0.089937        -0.884694
 H        -3.081758        -0.657052        -0.187436
 H        -2.754484         0.956344        -1.707303
 H        -2.731477        -0.216609         2.105478
 H        -2.579341         1.420380         1.761801
 H        -4.737280         1.694407         1.249012
 H        -5.247875        -0.190337         1.044483
 H        -4.961353         1.473226         3.741076
