19
Iteration:  4258charge 0 multiplicity 1
 C         1.311374         0.360592        -0.557214
 C        -0.080773         0.191139        -0.154355
 C        -1.126965         0.201517         0.484522
 C        -2.461247         0.024008         1.039003
 O        -3.445935        -0.397636        -0.063351
 C        -3.149712         1.437588         1.407039
 C        -4.753154         1.404778         1.332878
 C        -5.500938         0.221319         2.037757
 O        -5.131940        -0.353159         3.025474
 H         1.904898         0.771265         0.285832
 H         1.777428        -0.483926        -1.000765
 H         1.400782         1.065032        -1.451218
 H        -2.548995        -0.730889         1.864534
 H        -2.759695        -0.707063        -0.651791
 H        -2.778787         1.854513         2.365401
 H        -2.867523         2.168606         0.653757
 H        -5.161927         2.212533         1.866887
 H        -5.101210         1.508863         0.257699
 H        -6.496005        -0.058292         1.532790
