19
Iteration:  1652charge 0 multiplicity 1
 C         1.415140         0.101716         0.041443
 C        -0.020753         0.109001         0.246932
 C        -1.263419        -0.089703         0.156036
 C        -2.736991        -0.023242        -0.099691
 O        -2.955424         1.123949        -0.891251
 C        -3.438298         0.296250         1.318246
 C        -4.903874         0.275558         1.359815
 C        -5.509355         0.621531         2.656940
 O        -5.066437         0.357191         3.786512
 H         1.774921        -0.818328        -0.430852
 H         1.785127         0.922666        -0.558031
 H         1.901244         0.073799         1.025559
 H        -3.167770        -1.010359        -0.615330
 H        -2.452419         1.140609        -1.696033
 H        -2.949162        -0.419840         1.940326
 H        -2.935332         1.246457         1.617611
 H        -5.358900         0.904138         0.611179
 H        -5.409956        -0.713681         1.325817
 H        -6.349388         1.230828         2.490667
