19
Iteration:  1968charge 0 multiplicity 1
 C         1.387830        -0.333880         0.159683
 C         0.074680         0.135948         0.165604
 C        -1.146913         0.194658         0.002842
 C        -2.694886         0.253580         0.086772
 O        -3.259849         0.875075        -1.047450
 C        -3.262110         0.620540         1.432137
 C        -4.833680         0.073073         1.362919
 C        -5.552723         0.168451         2.742182
 O        -5.075760         0.885047         3.621538
 H         1.546804        -0.557666        -0.918968
 H         2.078539         0.491831         0.434364
 H         1.545831        -1.215306         0.823323
 H        -2.889572        -0.819260        -0.157483
 H        -2.977650         1.800904        -1.081268
 H        -2.849413        -0.064902         2.186346
 H        -3.231466         1.703260         1.661876
 H        -5.478492         0.588702         0.602298
 H        -4.809394        -0.972715         1.002640
 H        -6.237511        -0.697031         3.009725
