19
Iteration:  1341
 C         1.304156         0.007872         0.355867
 C        -0.086818        -0.104807        -0.157024
 C        -1.283507         0.021450        -0.332031
 C        -2.709172         0.168926        -0.209927
 O        -3.183278         1.472771        -0.454754
 C        -3.199000        -0.336037         1.258386
 C        -4.602014         0.122876         1.443117
 C        -4.940349         0.220956         2.919414
 O        -5.673598         1.019761         3.420571
 H         1.748050        -0.899797         0.849061
 H         1.966105         0.253662        -0.437208
 H         1.377745         0.857102         1.064628
 H        -3.211103        -0.441278        -1.018449
 H        -2.502229         2.125128        -0.268100
 H        -3.128531        -1.415375         1.436337
 H        -2.547300         0.242214         1.993898
 H        -5.027020         1.095578         1.031499
 H        -5.330951        -0.743424         1.091251
 H        -4.463097        -0.393063         3.637367
