19
Iteration:  3704
 C         1.227839         0.362498         0.431651
 C        -0.142724         0.271405         0.040506
 C        -1.330719        -0.032103         0.037287
 C        -2.733766        -0.242458         0.159579
 O        -3.505967        -0.050462        -1.032938
 C        -3.268981         0.699690         1.146340
 C        -4.837824         0.644760         1.281121
 C        -5.279739         0.675527         2.721264
 O        -4.561878         0.610547         3.700997
 H         1.953686         0.805599        -0.323985
 H         1.276163         1.142182         1.253284
 H         1.750768        -0.561100         0.803926
 H        -2.956802        -1.304372         0.588503
 H        -3.070958        -0.066171        -1.900198
 H        -2.828557         0.377807         2.183997
 H        -2.812336         1.722175         0.949544
 H        -4.986505         1.538838         0.666656
 H        -5.461947         0.010166         0.653554
 H        -6.387176         0.544259         2.797351
