19
Iteration:  4786
 C         1.156802         0.346056         0.295135
 C        -0.275182        -0.026916         0.301424
 C        -1.497871        -0.020896         0.476657
 C        -2.899400        -0.015468         0.198952
 O        -3.012122        -0.065844        -1.291536
 C        -3.622691         1.282645         0.790092
 C        -5.016986         0.945868         1.452394
 C        -5.023373         0.137075         2.724244
 O        -4.320288         0.336140         3.704280
 H         1.764826        -0.465593        -0.085472
 H         1.207118         1.252977        -0.402731
 H         1.395859         0.654180         1.289623
 H        -3.520754        -0.836880         0.499127
 H        -2.242471        -0.606891        -1.464199
 H        -3.160860         1.796070         1.574102
 H        -3.782898         1.885021        -0.102264
 H        -5.548186         1.858852         1.802688
 H        -5.740038         0.643907         0.752597
 H        -5.884844        -0.578306         2.843414
