19
Iteration:  3170charge 0 multiplicity 1
 C         1.093141         0.554772        -0.524107
 C        -0.226559         0.287119         0.019747
 C        -1.299249        -0.157206         0.446316
 C        -2.664413        -0.275516         0.370637
 O        -3.137850         1.075935         0.016415
 C        -3.363488        -0.711294         1.761748
 C        -4.847888        -0.567964         1.790274
 C        -5.351917         0.806910         2.032608
 O        -4.625423         1.605627         2.575119
 H         1.870702        -0.217769        -0.230428
 H         1.045436         0.571914        -1.633905
 H         1.390062         1.553234        -0.164182
 H        -3.083281        -0.877283        -0.470161
 H        -3.218860         1.612964         0.820447
 H        -3.025878        -1.785732         1.881142
 H        -2.867794        -0.135329         2.575722
 H        -5.290013        -0.821695         0.816768
 H        -5.204826        -1.282700         2.498174
 H        -6.465004         1.021807         1.846743
