19
Iteration:  3105
 C         1.035124         0.781544        -0.353111
 C        -0.118854        -0.031589        -0.028436
 C        -1.267566        -0.293624         0.172892
 C        -2.711007        -0.366065         0.318938
 O        -3.246876         1.029225         0.344543
 C        -3.271050        -0.806026         1.633705
 C        -4.770337        -0.541217         1.759265
 C        -5.333122         0.906009         2.092696
 O        -4.639250         1.823131         2.503992
 H         1.926769         0.724032         0.175428
 H         1.317233         0.821689        -1.382861
 H         0.645404         1.748490        -0.134210
 H        -3.100954        -1.007829        -0.562401
 H        -3.326348         1.528812        -0.508819
 H        -3.335896        -1.864621         1.897677
 H        -2.692606        -0.260279         2.420366
 H        -5.324209        -0.984979         0.819456
 H        -5.221772        -1.288290         2.525514
 H        -6.450969         0.940607         2.200724
