19
Iteration:  2015charge 0 multiplicity 1
 C         1.489576        -0.180683        -0.179318
 C         0.031743        -0.038403         0.109565
 C        -1.133536         0.243942         0.191836
 C        -2.570444         0.147977         0.204166
 O        -3.236216         0.965245        -0.867656
 C        -3.269924         0.341984         1.575261
 C        -4.751659        -0.047718         1.366412
 C        -5.645341         0.289892         2.665870
 O        -5.285188         1.068309         3.511370
 H         1.730500        -0.330869        -1.284992
 H         2.036908         0.658550         0.212515
 H         1.649186        -1.147461         0.385235
 H        -2.570057        -0.825194        -0.312100
 H        -2.893482         1.864641        -0.809659
 H        -2.728203        -0.417670         2.207733
 H        -3.101747         1.400562         1.838802
 H        -5.214641         0.327773         0.401125
 H        -4.691227        -1.193764         1.261294
 H        -6.694018        -0.184314         2.776357
