19
Iteration:  1714charge 0 multiplicity 1
 C         1.203149         0.193825         0.613704
 C        -0.071159        -0.074414         0.026971
 C        -1.253085        -0.015239        -0.171386
 C        -2.682040        -0.059685        -0.194301
 O        -3.399269         1.028903        -0.916764
 C        -3.210710         0.104216         1.309232
 C        -4.715947         0.510066         1.307399
 C        -5.299497         0.783136         2.689766
 O        -4.921053         0.276611         3.741922
 H         1.956833        -0.474812         0.279287
 H         1.471529         1.292252         0.403349
 H         1.087189         0.216369         1.683492
 H        -3.005097        -0.991073        -0.608256
 H        -2.984280         1.082595        -1.773505
 H        -3.036927        -0.794890         1.875335
 H        -2.730968         0.865992         1.894313
 H        -4.771540         1.230394         0.497250
 H        -5.346941        -0.337262         0.927662
 H        -6.167060         1.457632         2.816570
