19
Iteration:  1225
 C         1.455643        -0.146446         0.074377
 C        -0.038774        -0.063168        -0.011634
 C        -1.210305         0.080994        -0.061988
 C        -2.642106         0.249018        -0.116892
 O        -3.204496         1.510988        -0.508745
 C        -3.178787         0.040560         1.265935
 C        -4.749435        -0.069007         1.452183
 C        -5.116239         0.057374         2.922894
 O        -5.698756         0.990498         3.405105
 H         1.675043        -0.987896         0.694247
 H         1.970074        -0.275657        -0.946319
 H         1.860001         0.740736         0.537214
 H        -3.008492        -0.591053        -0.708728
 H        -2.742917         1.800654        -1.348458
 H        -2.723927        -0.906025         1.732994
 H        -2.836028         0.736073         2.070264
 H        -5.168654         0.865505         1.060431
 H        -5.324679        -0.814935         0.867745
 H        -4.519975        -0.601801         3.579240
