19
Iteration:    93
 C         1.386216         0.082973         0.022342
 C        -0.048059        -0.096933        -0.030511
 C        -1.247177         0.007904        -0.104649
 C        -2.702575         0.066066        -0.062858
 O        -2.930345         1.438148        -0.486990
 C        -3.265717        -0.297487         1.323177
 C        -4.646802         0.205868         1.466213
 C        -4.961210         0.807669         2.801609
 O        -5.894591         0.456724         3.499245
 H         1.595075         0.515619         1.042346
 H         1.923015        -0.908193        -0.042247
 H         1.798491         0.737250        -0.780429
 H        -3.045689        -0.689603        -0.854789
 H        -3.851706         1.549900        -0.834048
 H        -3.167698        -1.450863         1.580470
 H        -2.755486         0.256197         2.053086
 H        -4.793439         1.057937         0.702350
 H        -5.462239        -0.548134         1.237354
 H        -4.239578         1.606273         2.900319
