19
Iteration:   371charge 0 multiplicity 1
 C         1.412956        -0.136754        -0.472703
 C        -0.018339        -0.174174        -0.126916
 C        -1.157139        -0.088771         0.220940
 C        -2.620234         0.159299         0.167225
 O        -2.721715         1.361900        -0.637081
 C        -3.075121         0.463206         1.512742
 C        -4.680243         0.468173         1.561340
 C        -5.219725         0.600764         2.978677
 O        -6.310392         0.090771         3.370876
 H         2.036138         0.469030         0.261234
 H         1.903397        -1.105639        -0.562272
 H         1.557311         0.345694        -1.499412
 H        -3.103183        -0.667306        -0.343640
 H        -2.748020         1.080989        -1.547764
 H        -2.813050        -0.450845         2.213305
 H        -2.550787         1.241328         2.017020
 H        -4.996953         1.216224         0.907874
 H        -4.978789        -0.479730         1.321326
 H        -4.535907         1.350917         3.580795
