19
Iteration:  3971
 C         1.292005         0.377722         0.391423
 C        -0.108059         0.270886         0.098463
 C        -1.361370         0.185026         0.152623
 C        -2.795424         0.035304         0.322249
 O        -3.531385        -0.617390        -0.558063
 C        -3.388092         1.389172         0.785882
 C        -4.859896         1.296415         1.260907
 C        -5.215692         0.373827         2.590937
 O        -4.456660        -0.187946         3.367761
 H         1.610336         1.421683         0.413345
 H         1.468616         0.036073         1.431402
 H         1.956698        -0.125450        -0.308549
 H        -2.870283        -0.576469         1.290348
 H        -2.954702        -0.705713        -1.358710
 H        -2.684918         1.706581         1.531715
 H        -3.297426         2.276400         0.131617
 H        -5.217500         2.279372         1.619971
 H        -5.618009         0.845335         0.448880
 H        -6.341728         0.266974         2.789439
