19
Iteration:   108
 C         1.396496         0.112320         0.120429
 C        -0.057516        -0.141044        -0.146988
 C        -1.275466        -0.048664        -0.134945
 C        -2.729599         0.065694        -0.127140
 O        -2.962670         1.436278        -0.395035
 C        -3.166979        -0.221284         1.376309
 C        -4.721739         0.158887         1.442046
 C        -4.946281         0.802592         2.749991
 O        -5.874080         0.507089         3.462097
 H         1.617571         0.629818         1.014244
 H         2.093619        -0.838560         0.075197
 H         1.685068         0.803972        -0.659123
 H        -3.472666        -0.548352        -0.811294
 H        -3.770801         1.524668        -0.883075
 H        -3.067934        -1.320512         1.455245
 H        -2.207827        -0.066278         2.149227
 H        -4.946209         0.980249         0.698988
 H        -5.329085        -0.687185         1.303033
 H        -4.225694         1.445503         3.408081
