19
Iteration:   955
 C         1.383025        -0.323992        -0.430884
 C         0.093786         0.104934         0.009866
 C        -1.093460         0.045561         0.053193
 C        -2.591956         0.132903         0.117403
 O        -3.073309         1.328657        -0.563929
 C        -3.042559         0.242826         1.570204
 C        -4.527408         0.530203         1.646240
 C        -5.117297         0.408345         3.024615
 O        -6.326635         0.318605         3.164054
 H         1.902358        -0.762828         0.401439
 H         1.220443        -1.165475        -1.202386
 H         1.975111         0.499961        -0.829550
 H        -3.090654        -0.660234        -0.516784
 H        -2.440092         1.610131        -1.212180
 H        -2.785238        -0.757892         1.983218
 H        -2.371191         1.009531         1.881371
 H        -4.782475         1.518901         1.244907
 H        -5.094569        -0.072225         1.020405
 H        -4.429649         0.490881         3.920391
