19
Iteration:  3410charge 0 multiplicity 1
 C         1.421170        -0.166348        -0.072897
 C        -0.033438        -0.041629        -0.191328
 C        -1.214644         0.282913        -0.074295
 C        -2.782026         0.119910         0.113719
 O        -3.474248         1.262084        -0.500555
 C        -3.076086         0.039010         1.616490
 C        -4.457641        -0.567539         1.881510
 C        -5.351378         0.261210         2.841291
 O        -5.336529         1.480255         2.852528
 H         1.846535        -1.047350        -0.566697
 H         1.968394         0.680624        -0.438015
 H         1.533073        -0.159873         0.999106
 H        -3.054690        -0.876357        -0.453966
 H        -2.817285         1.865422        -0.881766
 H        -2.298233        -0.473356         2.162606
 H        -3.213590         1.022804         2.039605
 H        -5.047316        -0.281178         1.001158
 H        -4.759023        -1.644243         2.138421
 H        -6.278011        -0.301062         3.153534
