19
Iteration:  3479
 C         1.367041         0.037973        -0.422038
 C        -0.013840         0.205838        -0.118615
 C        -1.173213         0.033198         0.184509
 C        -2.658188         0.018806         0.286488
 O        -3.092880         0.935934        -0.626217
 C        -3.216921        -0.045921         1.692520
 C        -4.755469        -0.260870         1.656418
 C        -5.577879         0.336146         2.734502
 O        -5.324205         1.462527         3.143210
 H         1.514858        -0.600489        -1.267617
 H         1.966905         0.975975        -0.595017
 H         1.872060        -0.385529         0.416755
 H        -2.945171        -1.012319        -0.130166
 H        -2.515642         1.712236        -0.497085
 H        -2.658382        -0.841740         2.126624
 H        -2.910523         0.922084         2.136869
 H        -5.110877         0.429217         0.921837
 H        -4.861997        -1.337220         1.471070
 H        -6.352321        -0.356644         3.151325
