19
Iteration:  1684
 C         1.361612         0.179889         0.368817
 C        -0.046372         0.009675         0.083565
 C        -1.245842        -0.104924        -0.076677
 C        -2.714098        -0.049775        -0.141369
 O        -3.153336         1.114354        -0.930955
 C        -3.316511         0.182887         1.377265
 C        -4.864708         0.363069         1.334851
 C        -5.413848         0.703899         2.703213
 O        -5.008853         0.327723         3.769558
 H         2.006808        -0.583397         0.016764
 H         1.808339         1.115371         0.043620
 H         1.476978         0.194941         1.447641
 H        -3.139479        -0.895705        -0.715269
 H        -3.181145         0.962895        -1.914012
 H        -3.127946        -0.741325         1.860212
 H        -2.919031         1.078659         1.873153
 H        -5.010784         1.039176         0.532107
 H        -5.360256        -0.539722         1.088767
 H        -6.082783         1.621632         2.735463
