19
Iteration:  2124charge 0 multiplicity 1
 C         1.325648         0.344799        -0.377582
 C         0.042780        -0.144547        -0.037266
 C        -1.165474        -0.232370         0.189298
 C        -2.659790        -0.148581         0.275508
 O        -3.077836         1.118067        -0.270461
 C        -3.253846        -0.138214         1.647565
 C        -4.741614        -0.197621         1.489935
 C        -5.637378         0.593195         2.346731
 O        -5.246321         1.352732         3.226263
 H         1.424777         0.603162        -1.472823
 H         1.551872         1.224309         0.155073
 H         2.254223        -0.287416        -0.305098
 H        -3.000289        -0.996858        -0.347112
 H        -2.381894         1.795061        -0.035004
 H        -2.784448        -1.078009         2.010221
 H        -3.003486         0.542567         2.463762
 H        -4.951705         0.117977         0.457226
 H        -5.163537        -1.154328         1.643292
 H        -6.692369         0.552118         1.914571
