19
Iteration:  1210charge 0 multiplicity 1
 C         1.419242        -0.148454         0.020028
 C        -0.017107        -0.056975         0.077722
 C        -1.186092         0.039486        -0.171497
 C        -2.720225         0.195538        -0.052087
 O        -3.208830         1.518247        -0.544014
 C        -3.164964         0.073743         1.446763
 C        -4.661395         0.069364         1.420542
 C        -5.106048         0.027733         2.897507
 O        -5.742831         0.952146         3.375508
 H         1.895500        -1.028908         0.571310
 H         1.703373        -0.299805        -1.005663
 H         1.869990         0.812356         0.381789
 H        -3.143667        -0.668335        -0.715694
 H        -2.548555         1.968405        -1.056417
 H        -2.750546        -0.833729         1.859330
 H        -2.597934         0.956066         1.771571
 H        -5.226793         0.908516         0.886556
 H        -4.824010        -0.943954         1.178966
 H        -4.945809        -1.020495         3.336868
