19
Iteration:   130
 C         1.321936         0.133913         0.119567
 C        -0.010305        -0.101285        -0.142588
 C        -1.207745        -0.225126        -0.287003
 C        -2.623171         0.128418        -0.158762
 O        -3.019066         1.500979        -0.336916
 C        -3.247554        -0.247613         1.308681
 C        -4.639811         0.020011         1.517366
 C        -4.939448         0.752597         2.817788
 O        -5.926605         0.597759         3.478918
 H         1.359257         0.519891         1.118300
 H         1.873081        -0.888877         0.266992
 H         1.900560         0.829867        -0.472983
 H        -3.382527        -0.399142        -0.880223
 H        -3.457719         1.550511        -1.230926
 H        -2.990455        -1.215682         1.763964
 H        -2.529642         0.570257         1.824122
 H        -4.840185         0.936589         0.847333
 H        -5.259124        -0.802899         1.272589
 H        -4.415097         1.545110         3.298874
