19
Iteration:  3365
 C         1.228518        -0.218119         0.165621
 C        -0.150891         0.266167        -0.227296
 C        -1.343414         0.080937        -0.212484
 C        -2.840035         0.140080         0.012519
 O        -3.366790         1.304023        -0.551525
 C        -3.034431         0.025738         1.585682
 C        -4.311344        -0.632726         2.084912
 C        -5.349753         0.287676         2.609940
 O        -5.196977         1.452894         2.912801
 H         1.220625        -1.229642        -0.267391
 H         2.007051         0.247783        -0.379648
 H         1.324470         0.047040         1.208352
 H        -3.454472        -0.706869        -0.563747
 H        -2.916427         2.155768        -0.552019
 H        -2.202304        -0.425676         2.118331
 H        -3.062000         1.057052         1.935426
 H        -4.852777        -1.058703         1.202057
 H        -4.075019        -1.655210         2.629325
 H        -6.368274        -0.142367         2.814764
