19
Iteration:  4915charge 0 multiplicity 1
 C         1.214060         0.293873         0.643192
 C        -0.131732         0.163860         0.019484
 C        -1.339133         0.250860        -0.066375
 C        -2.736473         0.090011         0.344453
 O        -3.461832        -0.440509        -0.860085
 C        -3.422831         1.252422         0.957752
 C        -5.086383         1.022016         1.274223
 C        -5.188121         0.430912         2.719441
 O        -4.273612         0.009543         3.390291
 H         1.991533        -0.024958        -0.064704
 H         1.415162         1.340848         0.880125
 H         1.131451        -0.197746         1.591953
 H        -2.976175        -0.710011         1.071077
 H        -2.973026        -0.262442        -1.723394
 H        -2.875567         1.499175         1.885108
 H        -3.402360         2.114533         0.255287
 H        -5.654873         1.960191         1.392597
 H        -5.398052         0.369829         0.490636
 H        -6.188936         0.449988         3.195323
