19
Iteration:  3724
 C         1.245977         0.441685         0.506497
 C        -0.084402        -0.009541         0.024201
 C        -1.285403         0.014223        -0.045042
 C        -2.789912        -0.213425         0.157656
 O        -3.513547        -0.111878        -1.130478
 C        -3.343430         0.886731         1.186604
 C        -4.904937         0.783029         1.367147
 C        -5.275964         0.513617         2.750573
 O        -4.498277         0.597446         3.665567
 H         1.964832         0.956478        -0.148644
 H         1.285367         1.067569         1.315542
 H         1.894360        -0.399417         0.829137
 H        -2.734815        -1.271929         0.503557
 H        -2.816779        -0.167924        -1.818396
 H        -2.943726         0.819006         2.245380
 H        -3.021553         1.823105         0.719936
 H        -5.615239         1.511429         0.988554
 H        -5.194043        -0.129944         0.698270
 H        -6.371476         0.742914         2.902240
