19
Iteration:  4898charge 0 multiplicity 1
 C         1.204680         0.302553         0.618552
 C        -0.186887         0.099012         0.169212
 C        -1.359248         0.289972        -0.050382
 C        -2.758452         0.021528         0.243674
 O        -3.544649        -0.408743        -0.874921
 C        -3.527430         1.287280         1.047139
 C        -4.869063         0.953386         1.313529
 C        -5.178470         0.340771         2.640546
 O        -4.223264         0.148472         3.348977
 H         2.075269        -0.170874         0.122192
 H         1.297788         1.432074         0.652158
 H         1.368849        -0.228761         1.611175
 H        -2.663043        -0.750638         1.027047
 H        -3.330702         0.229936        -1.620113
 H        -2.948186         1.490780         1.948592
 H        -3.260061         2.195323         0.458259
 H        -5.526011         1.830239         1.107606
 H        -5.345390         0.163773         0.631396
 H        -6.271576         0.133917         2.853360
