19
Iteration:  3899
 C         1.275959         0.036339         0.416296
 C        -0.211709         0.375556         0.469941
 C        -1.453625         0.386560         0.362628
 C        -2.904610         0.129019         0.409727
 O        -3.436663        -0.604165        -0.713122
 C        -3.676925         1.472774         0.701461
 C        -5.072031         1.036366         1.237533
 C        -4.996479         0.352721         2.588666
 O        -3.997509        -0.019677         3.144158
 H         1.904692         0.870073         0.007682
 H         1.709761        -0.170283         1.360768
 H         1.456699        -0.804050        -0.306763
 H        -3.060105        -0.576912         1.225269
 H        -3.387446        -0.209473        -1.605066
 H        -3.117503         2.166583         1.368222
 H        -3.788366         2.112213        -0.163763
 H        -5.856275         1.787463         1.435068
 H        -5.526019         0.437693         0.500624
 H        -5.892054         0.587084         3.221847
