19
Iteration:  2395charge 0 multiplicity 1
 C         1.012196         0.438369         0.574904
 C        -0.281709         0.300343         0.058079
 C        -1.485856         0.114923        -0.106631
 C        -2.902603        -0.206247        -0.091098
 O        -3.680419         1.044462        -0.458252
 C        -3.359813        -0.840979         1.366946
 C        -4.766108        -0.466461         1.710010
 C        -4.868522         0.989837         2.165230
 O        -4.119606         1.354548         3.070245
 H         1.485208         1.430503         0.253586
 H         0.959878         0.373636         1.716650
 H         1.785355        -0.378735         0.306653
 H        -3.232659        -1.044844        -0.673813
 H        -3.244386         1.709569         0.069369
 H        -3.141435        -1.908682         1.110791
 H        -2.715677        -0.446595         2.137964
 H        -5.414729        -0.688146         0.864704
 H        -5.066497        -1.075988         2.686254
 H        -5.775963         1.471146         1.762358
