19
Iteration:  3385
 C         1.184423        -0.199372         0.080443
 C        -0.047140         0.210687        -0.316619
 C        -1.291342         0.149789        -0.165776
 C        -2.742466         0.100089         0.179825
 O        -3.373504         1.279229        -0.518850
 C        -3.051092         0.095761         1.593731
 C        -4.423202        -0.597535         1.871781
 C        -5.385835         0.258631         2.766761
 O        -5.236758         1.455434         2.855445
 H         1.335055        -1.207621        -0.348956
 H         1.950765         0.389913        -0.354435
 H         1.229040        -0.127548         1.177943
 H        -3.229837        -0.852370        -0.273097
 H        -2.684154         1.922991        -0.765492
 H        -2.317875        -0.571725         2.095540
 H        -3.084396         1.048510         2.139445
 H        -4.876577        -1.084126         0.956609
 H        -4.361874        -1.368172         2.625965
 H        -6.133838        -0.321268         3.387944
