19
Iteration:   840charge 0 multiplicity 1
 C         1.333194        -0.250842        -0.165070
 C        -0.039471        -0.221618        -0.018882
 C        -1.252728        -0.266305        -0.042102
 C        -2.633145         0.304994         0.041984
 O        -2.854455         1.655891        -0.485423
 C        -3.142701         0.288662         1.450661
 C        -4.759437         0.343610         1.436894
 C        -5.279820         0.813398         2.755387
 O        -5.800534        -0.013564         3.509451
 H         1.843889        -0.167468         0.858533
 H         1.653465        -1.107015        -0.707151
 H         1.574380         0.669975        -0.776568
 H        -3.323376        -0.496634        -0.464901
 H        -2.409208         1.874440        -1.292078
 H        -2.916666        -0.613295         1.998618
 H        -2.653279         1.125512         2.075171
 H        -5.074065         0.861961         0.590991
 H        -4.853501        -0.728366         1.158141
 H        -5.097373         1.905718         2.857838
