19
Iteration:  2268
 C         1.156250         0.224460         0.368964
 C        -0.230562         0.248414        -0.010947
 C        -1.410919         0.087090        -0.028997
 C        -2.883829        -0.011812         0.050863
 O        -3.612333         1.246205        -0.105097
 C        -3.232070        -0.692105         1.408410
 C        -4.752884        -0.631163         1.746407
 C        -5.127862         0.700294         2.222614
 O        -4.340007         1.534030         2.633702
 H         1.791998         0.887417        -0.318657
 H         1.279835         0.620519         1.432618
 H         1.502523        -0.810627         0.234035
 H        -3.131963        -0.749633        -0.782214
 H        -3.249244         1.780221         0.638886
 H        -2.900679        -1.769217         1.502730
 H        -2.576151        -0.129437         2.159559
 H        -5.377219        -1.199280         0.965199
 H        -5.073072        -1.201095         2.609373
 H        -6.241333         0.782994         2.164858
