19
Iteration:  2775
 C         1.398752        -0.143169        -0.299178
 C         0.024174        -0.065600         0.152789
 C        -1.170043        -0.001591         0.180188
 C        -2.640719         0.145467         0.121889
 O        -3.066273         0.637877        -1.160268
 C        -3.506892         0.796945         1.250308
 C        -4.584219        -0.043097         1.777968
 C        -5.233243         0.186574         3.100940
 O        -5.590282         1.248774         3.521038
 H         2.077807         0.597313         0.271645
 H         2.033369        -1.184592        -0.288105
 H         1.518671         0.089384        -1.408631
 H        -2.905169        -0.962996        -0.068346
 H        -2.942183         1.606504        -1.152369
 H        -2.757552         0.879398         2.076827
 H        -3.809319         1.800136         0.880702
 H        -5.460689        -0.016436         1.187039
 H        -4.310500        -1.038244         1.714857
 H        -5.413123        -0.698887         3.770068
