19
Iteration:  3093charge 0 multiplicity 1
 C         1.026317         0.782451        -0.305359
 C        -0.130588         0.001425         0.003627
 C        -1.270664        -0.375104         0.179541
 C        -2.713418        -0.329257         0.247472
 O        -3.273758         1.088879         0.254129
 C        -3.259432        -0.852737         1.636486
 C        -4.770260        -0.540817         1.756107
 C        -5.233881         0.853850         2.137582
 O        -4.700227         1.858788         2.567523
 H         1.837740         0.491765         0.352708
 H         1.241633         0.532510        -1.311777
 H         0.786168         1.829656        -0.226611
 H        -3.229690        -0.861126        -0.659617
 H        -3.462701         1.062331        -0.701538
 H        -2.675685        -1.758293         1.786005
 H        -2.758940        -0.110829         2.311334
 H        -5.346106        -0.923716         0.835660
 H        -5.209798        -0.967419         2.724462
 H        -6.362851         0.851347         2.057883
