19
Iteration:  4405charge 0 multiplicity 1
 C         1.411614         0.325983        -0.305474
 C        -0.026658         0.082190        -0.110260
 C        -1.207737         0.332609         0.254310
 C        -2.611552         0.171019         0.833391
 O        -3.602885        -0.386821        -0.083502
 C        -3.194120         1.462477         1.249564
 C        -4.757297         1.275909         1.417605
 C        -5.437211         0.394055         2.302323
 O        -4.909374        -0.536162         2.890319
 H         1.783742         0.505636         0.725103
 H         2.015063        -0.492335        -0.845681
 H         1.701001         1.271885        -0.720196
 H        -2.440253        -0.437007         1.790345
 H        -3.343927        -1.119110        -0.698873
 H        -2.764798         1.776426         2.235545
 H        -3.056826         2.235694         0.446592
 H        -5.000501         2.312304         1.731903
 H        -5.226261         1.202955         0.455067
 H        -6.606449         0.654819         2.450956
