19
Iteration:  4682charge 0 multiplicity 1
 C         1.325626         0.117312         0.504652
 C        -0.054487         0.253986         0.075356
 C        -1.287449         0.275146         0.068103
 C        -2.744501         0.056131         0.166508
 O        -3.440339        -0.016263        -1.027726
 C        -3.499166         1.113874         0.838593
 C        -5.066668         0.658050         1.378441
 C        -5.220729         0.415855         2.804432
 O        -4.390751         0.193692         3.657534
 H         1.390614        -0.951039         0.837213
 H         2.053697         0.201466        -0.258717
 H         1.707595         0.801829         1.342621
 H        -2.953300        -0.845330         0.729121
 H        -2.914411        -0.152027        -1.801654
 H        -3.148623         1.490110         1.837655
 H        -3.745438         2.096498         0.420522
 H        -5.819394         1.433531         1.110241
 H        -5.312276        -0.252641         0.766341
 H        -6.377943         0.371472         3.077973
