19
Iteration:   950
 C         1.329963        -0.322887        -0.425914
 C         0.138151         0.068435         0.003539
 C        -1.098813         0.066009         0.064398
 C        -2.565903         0.170386         0.082247
 O        -3.077501         1.308494        -0.544039
 C        -3.016658         0.226828         1.534482
 C        -4.563411         0.538036         1.620848
 C        -5.122621         0.427856         3.004799
 O        -6.319429         0.306522         3.194979
 H         2.018784        -0.754492         0.371730
 H         1.301905        -1.108498        -1.137956
 H         1.954016         0.513578        -0.796412
 H        -3.107650        -0.700423        -0.293275
 H        -2.352098         1.596610        -1.174018
 H        -2.780774        -0.790150         1.857047
 H        -2.426644         1.105777         1.970412
 H        -4.822196         1.621219         1.475996
 H        -5.132616        -0.249173         0.937313
 H        -4.555746         0.584397         3.939328
