19
Iteration:  3721charge 0 multiplicity 1
 C         1.261063         0.440677         0.499174
 C        -0.083454         0.024715         0.008233
 C        -1.303178         0.011316        -0.032256
 C        -2.798667        -0.218078         0.158406
 O        -3.520353        -0.102676        -1.110488
 C        -3.341123         0.840368         1.197849
 C        -4.862784         0.758817         1.339972
 C        -5.275652         0.538643         2.732789
 O        -4.507868         0.603191         3.667293
 H         1.957779         0.920494        -0.172045
 H         1.286685         1.092232         1.385066
 H         1.809227        -0.447272         0.838049
 H        -2.762083        -1.232579         0.475840
 H        -2.766263        -0.153624        -1.723472
 H        -2.952309         0.758623         2.168639
 H        -3.128468         1.784312         0.752037
 H        -5.611068         1.585922         1.116135
 H        -5.174604        -0.145215         0.671235
 H        -6.360149         0.787834         2.897392
