19
Iteration:  1995charge 0 multiplicity 1
 C         1.395531        -0.283135        -0.045092
 C         0.042572         0.023293         0.155456
 C        -1.153786         0.331176         0.242572
 C        -2.688214         0.123471         0.120611
 O        -3.296031         0.911445        -0.872051
 C        -3.280925         0.456168         1.418956
 C        -4.697798         0.037259         1.440906
 C        -5.488019         0.231564         2.608975
 O        -5.188613         0.978406         3.501864
 H         1.483101        -0.428517        -1.129644
 H         2.059298         0.517386         0.334648
 H         1.763260        -1.134752         0.573388
 H        -2.747295        -0.895139        -0.248541
 H        -2.914867         1.790783        -0.866464
 H        -2.849502        -0.070651         2.290453
 H        -3.197863         1.548929         1.522587
 H        -5.342908         0.672860         0.754485
 H        -4.812111        -0.955657         0.929247
 H        -6.250505        -0.551937         2.634401
