19
Iteration:  2782
 C         1.421007        -0.117526        -0.326857
 C         0.036771        -0.068316         0.137310
 C        -1.202028        -0.048001         0.153245
 C        -2.652325         0.083752         0.118232
 O        -3.016184         0.661366        -1.145823
 C        -3.471785         0.823316         1.258244
 C        -4.610506        -0.067509         1.801859
 C        -5.232679         0.171873         3.113580
 O        -5.604247         1.267242         3.520317
 H         1.930906         0.562389         0.343253
 H         1.862455        -1.063703        -0.180326
 H         1.543142         0.167925        -1.351389
 H        -3.136375        -0.874752         0.098836
 H        -2.919072         1.593965        -1.289375
 H        -2.788814         1.181357         2.039614
 H        -3.883271         1.782191         0.948833
 H        -5.472111         0.093385         1.070234
 H        -4.285029        -1.148040         1.685452
 H        -5.401619        -0.722053         3.749735
