19
Iteration:  3716
 C         1.285550         0.426960         0.492275
 C        -0.081330         0.099078        -0.003491
 C        -1.339160         0.004907        -0.009527
 C        -2.788697        -0.207068         0.158069
 O        -3.523595        -0.088105        -1.071497
 C        -3.348502         0.764537         1.184101
 C        -4.810042         0.698343         1.285889
 C        -5.280777         0.601767         2.714289
 O        -4.520668         0.604572         3.679666
 H         1.914689         0.879312        -0.321905
 H         1.179018         1.108082         1.432152
 H         1.688488        -0.548856         0.842789
 H        -2.941143        -1.295260         0.530848
 H        -2.755675        -0.123814        -1.675120
 H        -2.824556         0.632833         2.195444
 H        -3.192204         1.822645         0.796668
 H        -5.388616         1.649110         1.183248
 H        -5.234541        -0.047349         0.686598
 H        -6.378675         0.715346         2.906616
