19
Iteration:  4436charge 0 multiplicity 1
 C         1.447499         0.245731        -0.326109
 C         0.024155         0.417267         0.150334
 C        -1.242083         0.314030         0.113893
 C        -2.640250         0.035994         0.723139
 O        -3.493084        -0.440824        -0.386886
 C        -3.245155         1.377959         1.326609
 C        -4.806466         1.341775         1.420403
 C        -5.433542         0.480528         2.467130
 O        -4.980764        -0.512362         3.034084
 H         2.174284         0.158845         0.489140
 H         1.710892        -0.703772        -0.892823
 H         1.774256         1.106888        -0.871635
 H        -2.498293        -0.627384         1.585203
 H        -3.275127        -1.358305        -0.567908
 H        -2.732454         1.344456         2.299103
 H        -2.898011         2.261735         0.777172
 H        -5.151987         2.348857         1.471687
 H        -5.362295         0.974733         0.492984
 H        -6.421731         0.870336         2.533871
