19
Iteration:  3460charge 0 multiplicity 1
 C         1.395842        -0.041242        -0.364135
 C         0.006357         0.104758         0.078566
 C        -1.251638         0.104979         0.095380
 C        -2.633588        -0.095239         0.165776
 O        -3.303498         1.121844        -0.559261
 C        -3.114573        -0.004172         1.640834
 C        -4.579295        -0.353976         1.669702
 C        -5.476540         0.320272         2.768487
 O        -5.396792         1.494224         3.073237
 H         1.297835        -0.668686        -1.287889
 H         1.735351         0.971622        -0.765569
 H         2.176488        -0.401423         0.398467
 H        -2.794832        -0.912531        -0.418244
 H        -2.536187         1.720718        -0.632353
 H        -2.656962        -0.681521         2.428115
 H        -2.949059         1.045092         1.989975
 H        -5.036687         0.076373         0.722761
 H        -4.924934        -1.332148         1.648204
 H        -6.285626        -0.312912         3.212536
