19
Iteration:  3053
 C         1.141166         0.593649        -0.146357
 C        -0.214617         0.178154        -0.017771
 C        -1.388491        -0.192174         0.017775
 C        -2.774862        -0.243177         0.233462
 O        -3.252921         1.057198        -0.217209
 C        -3.172365        -0.688402         1.690365
 C        -4.780480        -0.534364         1.957180
 C        -5.321827         0.825163         2.143818
 O        -4.689504         1.651755         2.784502
 H         1.748660         0.238625         0.720716
 H         1.652727         0.008181        -0.996451
 H         1.411939         1.685803        -0.156222
 H        -3.175516        -1.126718        -0.295636
 H        -3.126761         1.090531        -1.194939
 H        -2.885623        -1.703722         2.024612
 H        -2.737333         0.094827         2.342361
 H        -5.460853        -1.143837         1.286947
 H        -4.864190        -0.956862         3.001920
 H        -6.343039         0.993611         1.815234
