19
Iteration:  2998charge 0 multiplicity 1
 C         1.308524         0.243007         0.095987
 C        -0.147425         0.099697        -0.002987
 C        -1.349727         0.199359        -0.129031
 C        -2.819921        -0.110282         0.142628
 O        -3.671905         0.740697        -0.545599
 C        -3.019501        -0.296253         1.618010
 C        -4.515210        -0.480921         1.857004
 C        -5.267040         0.800721         2.241402
 O        -4.862989         1.578272         3.091316
 H         1.935904         0.087424         1.005975
 H         1.672955        -0.495592        -0.748563
 H         1.628710         1.262328        -0.326474
 H        -3.051606        -1.131133        -0.139051
 H        -3.827207         1.556020         0.003842
 H        -2.554288        -1.264876         1.891852
 H        -2.513063         0.512297         2.176791
 H        -4.910142        -0.999899         0.958110
 H        -4.765758        -1.079684         2.720795
 H        -6.346284         0.769519         2.008614
