19
Iteration:  1160charge 0 multiplicity 1
 C         1.548687        -0.151302        -0.168243
 C         0.094234        -0.031579        -0.261555
 C        -1.151254        -0.005649         0.009634
 C        -2.693246         0.199260         0.059458
 O        -2.993897         1.361735        -0.722036
 C        -3.196659         0.223845         1.569522
 C        -4.657190         0.244918         1.583071
 C        -5.368467        -0.018747         2.837910
 O        -5.946423         0.853306         3.491187
 H         1.770353        -0.908726         0.536329
 H         2.066541        -0.504280        -1.105552
 H         2.004164         0.755374         0.172236
 H        -3.207629        -0.591229        -0.441956
 H        -2.833698         2.201818        -0.224954
 H        -2.567511        -0.660230         1.851141
 H        -2.842851         1.085377         2.143458
 H        -4.967518         1.214278         1.351848
 H        -5.008415        -0.638533         0.981575
 H        -5.313194        -1.152333         3.043488
