19
Iteration:  1213charge 0 multiplicity 1
 C         1.412894        -0.149064         0.032690
 C        -0.003507        -0.060206         0.066933
 C        -1.193174         0.045228        -0.153037
 C        -2.683316         0.180504        -0.054008
 O        -3.225720         1.524945        -0.535999
 C        -3.160106         0.074124         1.399423
 C        -4.691002         0.062481         1.440307
 C        -5.105035         0.018604         2.893298
 O        -5.731182         0.960556         3.377808
 H         1.851470        -0.980690         0.596868
 H         1.747927        -0.288233        -1.038959
 H         1.857609         0.772238         0.417199
 H        -3.178575        -0.524353        -0.718321
 H        -2.524590         1.900509        -1.123944
 H        -2.767210        -0.918706         1.764944
 H        -2.673068         0.986905         1.850589
 H        -5.223123         0.865158         0.880788
 H        -4.867302        -0.951785         1.108283
 H        -4.867409        -0.907999         3.466787
