19
Iteration:  2756charge 0 multiplicity 1
 C         1.410286        -0.235231        -0.280966
 C         0.015883        -0.038535         0.168845
 C        -1.149757         0.298825         0.292252
 C        -2.627143         0.105635         0.068783
 O        -3.199623         0.633745        -1.191727
 C        -3.372659         0.731465         1.284521
 C        -4.639368        -0.143146         1.691397
 C        -5.234798         0.206222         3.054414
 O        -5.537872         1.268239         3.551169
 H         2.048120         0.430691         0.285139
 H         1.814132        -1.251586        -0.067180
 H         1.555190        -0.221962        -1.391194
 H        -3.041551        -0.924164         0.050894
 H        -3.139205         1.540375        -1.458994
 H        -2.630982         0.846932         2.087384
 H        -3.655089         1.801877         1.213956
 H        -5.381198        -0.122408         0.832132
 H        -4.220619        -1.208548         1.745394
 H        -5.398700        -0.655308         3.774642
