19
Iteration:   775
 C         1.434339        -0.463784         0.068674
 C         0.040705        -0.098596        -0.072211
 C        -1.197008         0.000053         0.027090
 C        -2.762763         0.364825        -0.104451
 O        -2.887516         1.733665        -0.636664
 C        -3.416155         0.172374         1.320727
 C        -4.905766         0.254607         1.397261
 C        -5.228487         0.748405         2.762815
 O        -5.520862         0.005878         3.661348
 H         1.760649        -0.355066         1.185490
 H         1.721050        -1.418235        -0.299651
 H         2.100024         0.247717        -0.536475
 H        -3.277289        -0.222198        -0.933928
 H        -2.383581         1.551312        -1.481133
 H        -3.016718        -0.753882         1.716251
 H        -2.897727         0.799167         2.094209
 H        -5.281065         1.144846         1.023775
 H        -5.603961        -0.622653         1.252349
 H        -5.181246         1.816013         2.969970
