19
Iteration:  2829
 C         1.309915         0.112599        -0.168807
 C        -0.129359        -0.153973        -0.123872
 C        -1.314392        -0.148941         0.211762
 C        -2.737039        -0.027373         0.039425
 O        -2.898506         0.866114        -1.153132
 C        -3.307704         0.566592         1.334991
 C        -4.547865        -0.212386         1.870094
 C        -5.223027         0.294592         3.146240
 O        -5.616898         1.398308         3.462680
 H         1.693116         0.713874         0.681438
 H         1.921437        -0.812648        -0.233584
 H         1.632099         0.481799        -1.160649
 H        -3.192225        -0.998340        -0.237528
 H        -2.138805         0.672695        -1.753614
 H        -2.475698         0.658958         2.052567
 H        -3.521150         1.621465         1.154820
 H        -5.416046        -0.225099         1.209619
 H        -4.252650        -1.222539         2.013645
 H        -5.631858        -0.519329         3.772977
