19
Iteration:    70charge 0 multiplicity 1
 C         1.498982        -0.007912        -0.056465
 C         0.064096         0.072942         0.096339
 C        -1.159451        -0.120725         0.002380
 C        -2.654847         0.101250        -0.168717
 O        -2.981195         1.423433        -0.569938
 C        -3.271401        -0.207784         1.262474
 C        -4.792956         0.250081         1.443265
 C        -5.060751         0.800986         2.851264
 O        -5.925595         0.411172         3.637921
 H         2.057646         0.372342         0.873313
 H         1.776349        -1.030236        -0.253404
 H         1.828627         0.579708        -0.962529
 H        -3.051726        -0.654402        -0.929921
 H        -3.814754         1.388665        -1.072386
 H        -3.351531        -1.331117         1.415035
 H        -2.712414         0.276388         1.997121
 H        -4.913729         1.120580         0.713550
 H        -5.563854        -0.548676         1.131665
 H        -4.253395         1.565906         3.026071
