19
Iteration:  2846
 C         1.329891         0.112888        -0.157097
 C        -0.046922        -0.132686         0.030429
 C        -1.258908        -0.226103         0.003374
 C        -2.751540        -0.035375        -0.030818
 O        -2.989802         0.948344        -1.052590
 C        -3.324011         0.540128         1.374515
 C        -4.542702        -0.250606         1.890064
 C        -5.339246         0.271076         3.169327
 O        -5.490103         1.452083         3.351254
 H         1.569326         0.725437         0.727398
 H         1.996941        -0.792840        -0.151060
 H         1.498573         0.752221        -1.066451
 H        -3.224537        -1.027135        -0.221729
 H        -2.761315         0.381449        -1.812645
 H        -2.560336         0.555531         2.166095
 H        -3.688730         1.565438         1.190978
 H        -5.169102        -0.336866         0.937898
 H        -4.338601        -1.373067         2.166601
 H        -5.458543        -0.429494         4.093335
