19
Iteration:  1255
 C         1.436159        -0.167788         0.185352
 C        -0.021973         0.056174        -0.106762
 C        -1.194875         0.215495        -0.091613
 C        -2.638771         0.178416        -0.129229
 O        -3.091327         1.590487        -0.547845
 C        -3.297605        -0.194706         1.199543
 C        -4.849280        -0.102839         1.480447
 C        -5.027433         0.163166         2.894226
 O        -5.670061         1.036066         3.492772
 H         1.473041        -1.121690         0.785424
 H         2.112189        -0.323432        -0.665724
 H         1.786749         0.687493         0.802583
 H        -2.759288        -0.710671        -0.766517
 H        -3.317517         1.569117        -1.477368
 H        -3.141970        -1.269244         1.393233
 H        -2.648773         0.235537         1.941821
 H        -5.534268         0.590464         0.936237
 H        -5.319582        -1.030592         1.540061
 H        -4.366209        -0.629861         3.385097
