19
Iteration:  2755
 C         1.399476        -0.240121        -0.285039
 C         0.019330        -0.030527         0.170749
 C        -1.155624         0.309615         0.287216
 C        -2.624531         0.109739         0.072770
 O        -3.202167         0.630882        -1.189551
 C        -3.371591         0.727884         1.292938
 C        -4.633217        -0.149521         1.690256
 C        -5.242143         0.206885         3.047410
 O        -5.531571         1.267759         3.550217
 H         2.030180         0.429478         0.323670
 H         1.842002        -1.291108        -0.032544
 H         1.609636        -0.237415        -1.400510
 H        -3.046677        -0.936421         0.019451
 H        -3.138222         1.534177        -1.474719
 H        -2.614685         0.824019         2.086231
 H        -3.670976         1.800260         1.199195
 H        -5.345647        -0.102493         0.847201
 H        -4.262243        -1.194084         1.728988
 H        -5.384853        -0.641345         3.790918
