19
Iteration:  4069
 C         1.070466         0.675887        -0.269647
 C        -0.196154         0.278715         0.093945
 C        -1.227947        -0.110615         0.569444
 C        -2.657144        -0.293369         0.629348
 O        -3.081861        -0.384776        -0.682528
 C        -3.244647         1.039194         1.288669
 C        -4.734809         1.371909         1.259339
 C        -5.403938         0.601140         2.423854
 O        -4.923729        -0.138771         3.283472
 H         1.121423         1.713915         0.036160
 H         1.903937         0.095148         0.183659
 H         1.267101         0.629998        -1.326233
 H        -2.858980        -1.202621         1.202874
 H        -3.549644        -1.264910        -0.683477
 H        -2.861441         1.103590         2.317011
 H        -2.686889         1.871142         0.802242
 H        -4.728139         2.446054         1.383276
 H        -5.223396         1.101285         0.291520
 H        -6.559103         0.813443         2.419389
