19
Iteration:   442charge 0 multiplicity 1
 C         1.442344        -0.371768        -0.435565
 C         0.035666        -0.174136        -0.197949
 C        -1.074725         0.051099         0.271742
 C        -2.541635         0.249761         0.286687
 O        -3.011427         1.217021        -0.775124
 C        -3.123634         0.541635         1.654294
 C        -4.679056         0.669684         1.577707
 C        -5.301256         0.696577         2.905994
 O        -6.059673        -0.160533         3.253575
 H         2.037289         0.194749         0.304500
 H         1.823801        -1.451130        -0.532482
 H         1.637330         0.136544        -1.386098
 H        -3.009975        -0.559032        -0.204557
 H        -2.875395         2.161366        -0.693409
 H        -2.944187        -0.197799         2.333210
 H        -2.831103         1.444732         2.273207
 H        -4.930421         1.768298         1.369731
 H        -5.054888        -0.184570         0.874589
 H        -4.840210         1.554085         3.422307
