19
Iteration:  4307charge 0 multiplicity 1
 C         1.086308         0.406130        -0.618569
 C        -0.051668         0.201507         0.294107
 C        -1.228967        -0.001663         0.561022
 C        -2.704616         0.120604         0.972422
 O        -3.405497        -0.482195        -0.201823
 C        -3.185207         1.624438         1.285975
 C        -4.683908         1.508527         1.455245
 C        -5.306243         0.184486         1.894819
 O        -4.871242        -0.398669         2.913094
 H         1.902071         0.713542         0.066971
 H         1.394571        -0.596769        -1.124885
 H         1.110245         1.107125        -1.438534
 H        -2.771182        -0.547477         1.901364
 H        -3.316793        -1.445428         0.067679
 H        -2.625578         1.812726         2.219331
 H        -2.759534         2.315695         0.510820
 H        -5.077774         2.071518         2.422569
 H        -5.211922         1.938391         0.617643
 H        -6.326811        -0.124094         1.418772
