19
Iteration:   624
 C         1.190612        -0.473301         0.302279
 C        -0.212175        -0.183570         0.058736
 C        -1.340509         0.130218        -0.124257
 C        -2.735520         0.379839        -0.318813
 O        -2.894797         1.675223        -1.044295
 C        -3.154111         0.473458         1.322429
 C        -4.663821         0.407426         1.617129
 C        -4.969720         0.550465         3.058520
 O        -5.705107        -0.213932         3.612777
 H         1.538028        -0.179363         1.319644
 H         1.294349        -1.500847         0.306063
 H         1.905450        -0.020731        -0.381163
 H        -3.456790        -0.345671        -0.872987
 H        -2.026721         1.648166        -1.529241
 H        -2.485382        -0.318773         1.814780
 H        -2.741715         1.408501         1.590962
 H        -5.081023         1.252155         0.998161
 H        -5.118285        -0.430075         1.061471
 H        -4.633705         1.436358         3.774521
