19
Iteration:  4298
 C         1.100738         0.400819        -0.563814
 C        -0.140885         0.136086         0.128566
 C        -1.254897         0.029481         0.591256
 C        -2.604255         0.189930         0.963338
 O        -3.353723        -0.470245        -0.170400
 C        -3.075343         1.642262         1.289070
 C        -4.703297         1.446394         1.434608
 C        -5.348992         0.150636         1.950746
 O        -4.960108        -0.403252         2.927627
 H         1.857835         0.748630         0.159907
 H         1.537138        -0.487379        -1.045415
 H         0.829739         1.151780        -1.301382
 H        -2.750180        -0.387284         1.894935
 H        -3.294316        -1.456290        -0.258895
 H        -2.656044         1.965562         2.259065
 H        -2.753857         2.362551         0.498469
 H        -4.929816         2.209488         2.277353
 H        -5.171863         1.795491         0.563343
 H        -6.327033        -0.197264         1.495582
