19
Iteration:  3661charge 0 multiplicity 1
 C         1.295278         0.413989         0.166975
 C        -0.140977         0.254862         0.234579
 C        -1.278623         0.012271         0.066739
 C        -2.633700        -0.283500         0.056799
 O        -3.425983         0.073200        -1.117064
 C        -3.193987         0.411376         1.325879
 C        -4.809291         0.515205         1.309842
 C        -5.392004         0.833480         2.719284
 O        -4.812046         0.719906         3.795692
 H         1.516122         0.616371        -0.924910
 H         1.532911         1.326696         0.800135
 H         1.850574        -0.515088         0.472335
 H        -2.739687        -1.377308         0.183082
 H        -3.061829        -0.501215        -1.823542
 H        -2.750382        -0.177794         2.207597
 H        -2.761022         1.445291         1.467883
 H        -5.227625         1.381344         0.746757
 H        -5.297861        -0.330955         0.910928
 H        -6.416952         1.284216         2.721654
