19
Iteration:  4041charge 0 multiplicity 1
 C         1.243878         0.701432        -0.100898
 C        -0.133148         0.206905         0.181542
 C        -1.302147        -0.099574         0.478029
 C        -2.789493        -0.232564         0.551926
 O        -3.304236        -0.445287        -0.760395
 C        -3.334864         1.147808         1.326568
 C        -4.772062         1.257878         1.306009
 C        -5.369493         0.568370         2.404785
 O        -4.658284        -0.062306         3.203058
 H         1.327034         1.812375         0.084614
 H         1.983700         0.231708         0.572012
 H         1.572386         0.528674        -1.179958
 H        -3.102320        -1.130099         1.172707
 H        -3.759070        -1.315231        -0.739302
 H        -2.844394         1.221407         2.317619
 H        -2.863416         1.902547         0.701841
 H        -4.951034         2.363612         1.388745
 H        -5.052532         0.868622         0.294186
 H        -6.416578         0.720429         2.703143
