19
Iteration:  1001charge 0 multiplicity 1
 C         1.494629        -0.167199        -0.346623
 C         0.020823        -0.236606        -0.364825
 C        -1.065420         0.039228        -0.066590
 C        -2.468928         0.195267         0.148474
 O        -3.072819         1.319081        -0.500954
 C        -2.971936         0.301215         1.639138
 C        -4.483918         0.513122         1.688512
 C        -5.257599         0.258429         3.052245
 O        -6.448443         0.465056         3.191006
 H         1.911624        -0.566609         0.607879
 H         1.975732        -0.824570        -1.090315
 H         1.804717         0.904340        -0.432220
 H        -3.014000        -0.742576        -0.168110
 H        -2.710872         1.477911        -1.402629
 H        -2.635210        -0.672269         2.032406
 H        -2.512557         1.240771         2.025269
 H        -4.881699         1.577797         1.620814
 H        -5.113901         0.045317         0.972928
 H        -4.742594        -0.074057         3.960858
