19
Iteration:  4959
 C         1.287873         0.283207         0.343114
 C        -0.178669         0.429079         0.371414
 C        -1.358835         0.217952         0.264024
 C        -2.805117        -0.038218         0.361860
 O        -3.455113        -0.484448        -0.946977
 C        -3.477572         1.297156         0.678905
 C        -4.850641         1.210080         1.327469
 C        -5.172987         0.536626         2.793241
 O        -4.432589        -0.242001         3.385453
 H         1.757204         0.253574        -0.674597
 H         1.661133         1.181195         0.850110
 H         1.578580        -0.444711         1.054582
 H        -2.815167        -0.917704         1.043875
 H        -2.962167        -1.360567        -1.024666
 H        -2.890113         1.916373         1.360613
 H        -3.629120         1.806770        -0.296305
 H        -5.251932         2.241285         1.229051
 H        -5.454606         0.589906         0.677863
 H        -6.112504         0.816718         3.256074
