19
Iteration:  2067charge 0 multiplicity 1
 C         1.487061         0.043115        -0.310168
 C         0.044726         0.073558        -0.133025
 C        -1.127776        -0.128814         0.203296
 C        -2.563734        -0.078384         0.161715
 O        -3.002847         1.106169        -0.572483
 C        -3.237300         0.061496         1.542259
 C        -4.758896        -0.180300         1.519525
 C        -5.680992         0.583731         2.485254
 O        -5.517443         1.201266         3.536983
 H         1.586061         0.119675        -1.408506
 H         1.864372         0.941849         0.124638
 H         1.985116        -0.832818         0.166427
 H        -2.867230        -0.962506        -0.464915
 H        -2.433135         1.820415        -0.283894
 H        -2.642185        -0.637794         2.132266
 H        -3.084984         1.080017         1.939308
 H        -5.261231        -0.357897         0.587239
 H        -5.103864        -1.028567         2.076488
 H        -6.688408         0.221427         2.255522
