19
Iteration:  4185charge 0 multiplicity 1
 C         1.261348         0.389923        -0.451974
 C        -0.109743         0.468469        -0.185353
 C        -1.174037         0.312845         0.316147
 C        -2.454378        -0.048126         0.877554
 O        -3.198904        -0.653742        -0.256497
 C        -3.186205         1.081121         1.628750
 C        -4.675616         1.257334         1.268830
 C        -5.609873         0.458088         2.170627
 O        -5.168504        -0.139462         3.112691
 H         1.906504         0.855173         0.291840
 H         1.520571        -0.713684        -0.554331
 H         1.442979         0.603597        -1.496996
 H        -2.554855        -0.926058         1.553690
 H        -3.408383         0.030917        -0.934010
 H        -3.202690         1.082918         2.719921
 H        -2.682271         2.044439         1.406920
 H        -5.004625         2.284471         1.677744
 H        -5.102538         1.211502         0.217656
 H        -6.657193         0.862581         2.105680
