19
Iteration:  2892charge 0 multiplicity 1
 C         1.342335         0.073260         0.025191
 C        -0.131999        -0.054623        -0.011407
 C        -1.339038         0.006602         0.040079
 C        -2.734009        -0.013693        -0.022539
 O        -3.411951         0.934098        -0.831602
 C        -3.166532         0.354765         1.438473
 C        -4.508893        -0.437353         1.881549
 C        -5.297489         0.332465         2.938491
 O        -5.131277         1.526778         3.074833
 H         1.669592         0.409818         1.022834
 H         1.706049        -0.911716        -0.093878
 H         1.704645         0.775776        -0.712787
 H        -3.073635        -1.056956        -0.207405
 H        -3.095433         0.901913        -1.773758
 H        -2.423192         0.271023         2.251003
 H        -3.380690         1.422633         1.277121
 H        -5.143628        -0.809283         0.969082
 H        -4.274349        -1.493873         2.419288
 H        -5.986069        -0.234878         3.639142
