19
Iteration:  1597
 C         1.464500        -0.067160        -0.275735
 C         0.026801        -0.065546         0.024131
 C        -1.117446         0.072889         0.371423
 C        -2.597866         0.122801         0.295184
 O        -2.957430         1.066147        -0.854512
 C        -3.388766         0.499655         1.514853
 C        -4.918965         0.306841         1.238897
 C        -5.753095         0.250677         2.593027
 O        -5.158572         0.525526         3.661707
 H         1.700402        -1.009150        -0.715206
 H         1.665247         0.753591        -0.971174
 H         2.014264         0.143028         0.620525
 H        -2.940787        -0.919872        -0.065682
 H        -2.679431         1.978092        -0.620288
 H        -3.019203        -0.019075         2.351859
 H        -3.060455         1.562839         1.668231
 H        -5.337933         0.981858         0.513080
 H        -5.156070        -0.722418         0.832844
 H        -6.911422         0.089979         2.516817
