19
Iteration:  1023
 C         1.649990        -0.103005        -0.362663
 C         0.155441        -0.344626        -0.395424
 C        -1.102459        -0.054643        -0.108841
 C        -2.585409         0.142537         0.132298
 O        -3.098285         1.401402        -0.482935
 C        -3.055571         0.326925         1.665634
 C        -4.542717         0.601148         1.759902
 C        -5.281766         0.214207         2.961743
 O        -6.427443         0.495834         3.264264
 H         2.113353        -0.517705         0.584130
 H         2.296579        -0.625990        -1.091080
 H         1.824884         1.004117        -0.331903
 H        -3.031259        -0.784927        -0.240106
 H        -2.664158         1.324217        -1.358827
 H        -2.901311        -0.632209         2.211042
 H        -2.570157         1.292884         1.955295
 H        -4.968746         1.570034         1.209203
 H        -4.846944        -0.255313         1.206147
 H        -4.740952        -0.363508         3.698122
