19
Iteration:  1982charge 0 multiplicity 1
 C         1.434637        -0.300879         0.024927
 C        -0.018986         0.089121         0.207670
 C        -1.232438         0.275824         0.136265
 C        -2.589058         0.160027         0.116715
 O        -3.309673         0.908973        -0.978398
 C        -3.300040         0.520925         1.465691
 C        -4.762556         0.044686         1.313951
 C        -5.411243         0.117878         2.691205
 O        -5.161578         0.966557         3.569589
 H         1.773706        -0.655211        -1.011487
 H         2.148395         0.436892         0.313324
 H         1.569419        -1.267222         0.621870
 H        -2.922143        -0.864986        -0.020448
 H        -2.932243         1.825487        -0.920588
 H        -2.658015         0.205416         2.343393
 H        -3.304666         1.624805         1.638707
 H        -5.214600         0.827553         0.612498
 H        -4.928363        -1.009998         0.892804
 H        -6.445697        -0.256551         2.770256
