19
Iteration:  3278charge 0 multiplicity 1
 C         1.296099        -0.020688         0.003467
 C        -0.117633         0.211619        -0.204872
 C        -1.329375         0.177220        -0.226653
 C        -2.726256         0.010926         0.160545
 O        -3.493182         1.150957        -0.287007
 C        -3.028305        -0.216779         1.687120
 C        -4.517017        -0.575850         1.900380
 C        -5.433695         0.508352         2.327492
 O        -5.032937         1.506151         2.916972
 H         1.477458        -1.167162         0.251399
 H         1.992364         0.310405        -0.818698
 H         1.705120         0.485405         0.940764
 H        -3.267838        -0.776377        -0.435019
 H        -3.099054         1.987007         0.005061
 H        -2.484609        -1.130491         2.008168
 H        -2.662588         0.623266         2.273047
 H        -4.958096        -1.230716         1.162439
 H        -4.515589        -1.281980         2.847000
 H        -6.510485         0.325735         2.072101
