19
Iteration:  4747
 C         1.197657         0.261349         0.257776
 C        -0.236407         0.173828         0.542899
 C        -1.414847        -0.044076         0.451452
 C        -2.852589        -0.055580         0.212450
 O        -3.198816         0.111370        -1.294370
 C        -3.601910         1.204539         0.879533
 C        -5.056548         0.766810         1.305011
 C        -5.092656         0.244329         2.763223
 O        -4.252111         0.333088         3.637484
 H         1.470226        -0.793343        -0.006639
 H         1.448612         0.689707        -0.682161
 H         1.983815         0.701622         0.962294
 H        -3.207302        -1.047156         0.613810
 H        -2.902820        -0.689220        -1.823322
 H        -2.903711         1.822949         1.554480
 H        -3.625807         1.782283        -0.079972
 H        -5.652215         1.680881         1.463873
 H        -5.582188        -0.084665         0.721333
 H        -6.106242        -0.066427         3.021665
