19
Iteration:  2828
 C         1.307359         0.109667        -0.175858
 C        -0.122358        -0.151908        -0.125104
 C        -1.311184        -0.151309         0.218281
 C        -2.739693        -0.020428         0.035263
 O        -2.899131         0.860656        -1.153205
 C        -3.307697         0.570297         1.332450
 C        -4.551386        -0.201625         1.867276
 C        -5.208367         0.296244         3.146693
 O        -5.622138         1.391088         3.464721
 H         1.668710         0.693707         0.678660
 H         1.885198        -0.773942        -0.230043
 H         1.648058         0.453797        -1.134966
 H        -3.169000        -0.983123        -0.232860
 H        -2.115030         0.663255        -1.702623
 H        -2.486890         0.664430         2.064758
 H        -3.526862         1.619107         1.157598
 H        -5.457303        -0.241657         1.206772
 H        -4.252121        -1.247254         2.036428
 H        -5.675838        -0.512533         3.753796
