19
Iteration:  3622
 C         1.436454         0.539711        -0.028529
 C         0.099464         0.045576        -0.052022
 C        -1.116609        -0.170945         0.096814
 C        -2.617227        -0.271591         0.133623
 O        -3.291154         0.277082        -1.030081
 C        -3.360112         0.247084         1.459419
 C        -5.000849         0.348549         1.432067
 C        -5.563649         0.941660         2.725287
 O        -4.977145         0.830199         3.797962
 H         1.840675         0.704280        -1.002142
 H         1.521902         1.490733         0.507311
 H         2.111547        -0.107645         0.486935
 H        -2.833165        -1.421259         0.135841
 H        -2.727320         0.226957        -1.817260
 H        -3.103228        -0.315893         2.308776
 H        -3.069928         1.289421         1.596647
 H        -5.121712         1.059836         0.588608
 H        -5.425580        -0.716647         1.204285
 H        -6.435187         1.646336         2.687916
