19
Iteration:  4829charge 0 multiplicity 1
 C         1.195079         0.297094         0.411850
 C        -0.256030         0.205435         0.377940
 C        -1.474405         0.039116         0.316533
 C        -2.944174        -0.079467         0.229667
 O        -3.273819        -0.217261        -1.203958
 C        -3.579407         1.210188         0.832493
 C        -4.984614         1.029319         1.387635
 C        -4.970952         0.127698         2.622212
 O        -4.262600         0.327557         3.616888
 H         1.861213        -0.466200        -0.020425
 H         1.416514         1.323942         0.067501
 H         1.553507         0.283117         1.387119
 H        -3.196392        -1.014910         0.670741
 H        -2.558977         0.190815        -1.729094
 H        -2.999066         1.419713         1.756194
 H        -3.504389         2.140740         0.247209
 H        -5.411904         2.031352         1.756044
 H        -5.681589         0.734961         0.629354
 H        -5.709477        -0.657482         2.661028
