19
Iteration:  1969charge 0 multiplicity 1
 C         1.386014        -0.331254         0.150950
 C         0.072494         0.134516         0.167798
 C        -1.148036         0.197704         0.009821
 C        -2.693769         0.249518         0.090106
 O        -3.262952         0.878079        -1.044263
 C        -3.249829         0.618114         1.434979
 C        -4.834567         0.069001         1.353063
 C        -5.544731         0.164945         2.747174
 O        -5.080794         0.890658         3.617495
 H         1.533840        -0.555281        -0.948451
 H         2.076587         0.461607         0.445507
 H         1.573809        -1.210679         0.834759
 H        -2.898096        -0.819794        -0.121648
 H        -2.982476         1.794360        -1.074219
 H        -2.845708        -0.065100         2.218093
 H        -3.253730         1.704013         1.664355
 H        -5.471500         0.600914         0.570642
 H        -4.825699        -0.994242         0.974045
 H        -6.263433        -0.677653         2.992484
