19
Iteration:  2786charge 0 multiplicity 1
 C         1.430632        -0.086663        -0.324318
 C         0.010929        -0.080182         0.100810
 C        -1.199075        -0.070428         0.155053
 C        -2.687251         0.063432         0.107802
 O        -2.991283         0.663541        -1.155738
 C        -3.412906         0.853627         1.282776
 C        -4.635174        -0.107667         1.777401
 C        -5.234807         0.172040         3.148526
 O        -5.612709         1.284030         3.518620
 H         2.010644         0.635341         0.359422
 H         1.783536        -1.230912        -0.035488
 H         1.500002         0.323804        -1.388080
 H        -3.257736        -0.919580         0.180338
 H        -2.783382         1.649559        -1.193930
 H        -2.805540         1.300117         2.101492
 H        -3.952163         1.747355         0.860685
 H        -5.366763         0.071506         1.052513
 H        -4.357284        -1.105251         1.756074
 H        -5.390103        -0.801955         3.696312
