19
Iteration:   319
 C         1.578978        -0.169593        -0.316768
 C         0.146404        -0.124966        -0.180512
 C        -1.105692        -0.091997        -0.056145
 C        -2.599832         0.168151         0.052435
 O        -3.115560         1.415112        -0.496125
 C        -3.048477         0.220591         1.531491
 C        -4.588813         0.266231         1.597444
 C        -5.234730         0.665119         2.942160
 O        -6.332965         0.341547         3.411994
 H         2.099746         0.403374         0.547355
 H         1.945817        -1.142643        -0.291865
 H         1.933334         0.371362        -1.248861
 H        -3.013118        -0.650445        -0.613593
 H        -2.716816         1.687134        -1.314568
 H        -2.951913        -0.690888         1.929316
 H        -2.610721         0.995512         2.155403
 H        -4.886249         1.076080         0.761136
 H        -4.928881        -0.790337         1.301249
 H        -4.516822         1.184630         3.464435
