19
Iteration:   490charge 0 multiplicity 1
 C         1.460681        -0.517636        -0.285370
 C         0.059797        -0.055935         0.020312
 C        -1.115072         0.179465         0.007600
 C        -2.625860         0.239755         0.123689
 O        -3.171671         1.242647        -0.690526
 C        -3.079320         0.537814         1.557519
 C        -4.623070         0.766663         1.540798
 C        -5.295886         0.696749         2.925334
 O        -5.943506        -0.273558         3.296910
 H         2.155822        -0.264921         0.473283
 H         1.367913        -1.581437        -0.283414
 H         1.849013        -0.202639        -1.249400
 H        -2.968114        -0.795900        -0.272107
 H        -2.491066         1.953865        -0.788187
 H        -2.547200        -0.052542         2.272285
 H        -2.880992         1.523791         1.897282
 H        -4.745240         1.850450         1.333720
 H        -5.014769        -0.058076         0.966877
 H        -5.294291         1.689153         3.441752
