19
Iteration:  2214charge 0 multiplicity 1
 C         1.372624         0.286237        -0.178468
 C        -0.066313         0.111004         0.252694
 C        -1.298759         0.097563         0.388657
 C        -2.750746        -0.054785         0.137437
 O        -3.452407         1.098880        -0.288188
 C        -3.346336        -0.644192         1.391291
 C        -4.841116        -0.429232         1.501657
 C        -5.359295         0.656809         2.435370
 O        -4.663275         1.580564         2.850834
 H         1.361034         0.738542        -1.163651
 H         1.930951         0.839914         0.625671
 H         1.733723        -0.722755        -0.163438
 H        -2.850965        -0.863703        -0.608856
 H        -3.001351         1.779394         0.267010
 H        -2.984033        -1.671629         1.592262
 H        -2.804318        -0.119833         2.223881
 H        -5.366828        -0.518666         0.520293
 H        -5.219276        -1.306225         1.968467
 H        -6.468577         0.486253         2.762881
