19
Iteration:  4883charge 0 multiplicity 1
 C         1.207279         0.289170         0.597820
 C        -0.180227         0.169525         0.301334
 C        -1.356775         0.222066         0.050891
 C        -2.847911         0.081135         0.261171
 O        -3.613895        -0.359317        -0.912627
 C        -3.354658         1.224641         0.957026
 C        -4.947961         0.914405         1.213351
 C        -5.066880         0.314408         2.581031
 O        -4.218835         0.187128         3.455953
 H         1.825666        -0.262491        -0.142171
 H         1.531602         1.344358         0.538390
 H         1.463670        -0.004465         1.594810
 H        -2.955036        -0.843824         0.815525
 H        -3.773383         0.397810        -1.485369
 H        -2.861936         1.337250         1.931022
 H        -3.345124         2.156501         0.388712
 H        -5.674829         1.751874         1.052501
 H        -5.237161         0.226916         0.451395
 H        -6.069782        -0.233141         2.781413
