19
Iteration:  3079charge 0 multiplicity 1
 C         1.095530         0.733639        -0.282491
 C        -0.198779         0.077974         0.048389
 C        -1.339332        -0.409566         0.150218
 C        -2.822689        -0.263071         0.266526
 O        -3.225316         1.065311         0.055398
 C        -3.221006        -0.757858         1.623443
 C        -4.709449        -0.589058         1.850483
 C        -5.230427         0.840388         2.150171
 O        -4.723306         1.831651         2.641862
 H         1.990154         0.520721         0.498285
 H         1.550441         0.471223        -1.259768
 H         1.016329         1.873851        -0.200265
 H        -3.286626        -1.009736        -0.465597
 H        -3.626846         1.311157        -0.807079
 H        -3.107572        -1.851388         1.771732
 H        -2.661548        -0.218871         2.416884
 H        -5.296703        -0.843932         1.003265
 H        -5.028110        -1.300999         2.557030
 H        -6.247855         0.895192         1.825843
