19
Iteration:   890
 C         1.487872        -0.310523        -0.298577
 C         0.110607        -0.117865        -0.253304
 C        -1.064788        -0.009398         0.025096
 C        -2.542004         0.242313         0.070013
 O        -2.950140         1.443683        -0.523134
 C        -3.182402         0.236850         1.445164
 C        -4.710787         0.467578         1.548319
 C        -5.300061         0.725610         2.944549
 O        -6.176521         0.055615         3.479280
 H         1.785025        -0.471638         0.698901
 H         1.680893        -1.245624        -0.910033
 H         2.017765         0.514728        -0.747819
 H        -2.884793        -0.702179        -0.370113
 H        -2.191158         1.707056        -1.097938
 H        -2.979683        -0.662955         2.050094
 H        -2.848483         1.009840         2.108755
 H        -5.067851         1.428410         0.982791
 H        -5.228933        -0.323587         1.066404
 H        -4.873994         1.687846         3.328328
