19
Iteration:  2827charge 0 multiplicity 1
 C         1.304354         0.106534        -0.183047
 C        -0.115781        -0.149434        -0.125546
 C        -1.306254        -0.154222         0.223990
 C        -2.741792        -0.012566         0.030487
 O        -2.900097         0.854858        -1.152830
 C        -3.308567         0.574378         1.329761
 C        -4.554499        -0.190112         1.864680
 C        -5.194541         0.297241         3.147292
 O        -5.626990         1.384329         3.466562
 H         1.643162         0.675372         0.673727
 H         1.853645        -0.751563        -0.219604
 H         1.662912         0.437993        -1.115417
 H        -3.148773        -0.971939        -0.226680
 H        -2.092241         0.654176        -1.648556
 H        -2.501859         0.664375         2.079267
 H        -3.537240         1.620894         1.157185
 H        -5.493072        -0.257074         1.201849
 H        -4.252860        -1.273275         2.060720
 H        -5.715973        -0.512632         3.735516
