19
Iteration:  4775charge 0 multiplicity 1
 C         1.164995         0.369564         0.278777
 C        -0.267418         0.001223         0.361404
 C        -1.460546        -0.102337         0.491004
 C        -2.949596         0.016347         0.198862
 O        -3.047868         0.024097        -1.221620
 C        -3.685544         1.212591         0.742478
 C        -4.988184         0.908903         1.398279
 C        -5.037975         0.187707         2.736893
 O        -4.317436         0.321515         3.709312
 H         1.693472        -0.530328        -0.039083
 H         1.520505         1.110841        -0.523900
 H         1.725774         0.607624         1.127195
 H        -3.321047        -0.896931         0.668545
 H        -2.391360        -0.580202        -1.657776
 H        -2.919397         1.762449         1.224021
 H        -3.922857         1.869547        -0.089443
 H        -5.306518         1.938684         1.640789
 H        -5.606585         0.329200         0.796319
 H        -5.919137        -0.555256         2.742346
