19
Iteration:   774charge 0 multiplicity 1
 C         1.426581        -0.466987         0.074741
 C         0.035779        -0.088174        -0.067612
 C        -1.190815         0.002687         0.023901
 C        -2.758325         0.360441        -0.100582
 O        -2.893388         1.731526        -0.639120
 C        -3.411544         0.167951         1.308292
 C        -4.905087         0.259795         1.407132
 C        -5.229293         0.740318         2.761970
 O        -5.518324         0.003402         3.662838
 H         1.754480        -0.369927         1.174391
 H         1.688142        -1.439108        -0.301294
 H         2.105259         0.230494        -0.533243
 H        -3.265492        -0.229125        -0.975162
 H        -2.365958         1.595238        -1.495901
 H        -3.043866        -0.717677         1.729451
 H        -2.891725         0.798147         2.101845
 H        -5.248136         1.133011         1.010949
 H        -5.594976        -0.584742         1.267289
 H        -5.173640         1.866039         2.933280
