19
Iteration:  4582
 C         1.348155         0.411712         0.150504
 C        -0.131293         0.292769         0.070914
 C        -1.237682        -0.171267         0.335614
 C        -2.813780        -0.115153         0.348425
 O        -3.428593        -0.118140        -0.989399
 C        -3.357786         1.057098         1.207285
 C        -4.970285         1.067710         1.306496
 C        -5.283473         0.286389         2.559100
 O        -4.543445         0.184036         3.538971
 H         1.591168        -0.296268         0.964076
 H         1.806987        -0.068097        -0.723029
 H         1.827515         1.421544         0.267426
 H        -3.083326        -1.042448         0.896300
 H        -3.241681         0.774420        -1.394549
 H        -3.163474         1.011086         2.306401
 H        -2.894112         2.039935         0.901491
 H        -5.312686         2.076494         1.605967
 H        -5.339653         0.911791         0.282507
 H        -6.279150        -0.136166         2.533265
