19
Iteration:  4294charge 0 multiplicity 1
 C         1.109373         0.398675        -0.536230
 C        -0.179824         0.108341         0.066201
 C        -1.241463         0.059831         0.599157
 C        -2.560743         0.187390         0.954346
 O        -3.349158        -0.447243        -0.152342
 C        -3.062015         1.601040         1.285026
 C        -4.695246         1.452039         1.432748
 C        -5.360290         0.160918         1.956921
 O        -4.981404        -0.420305         2.951362
 H         1.892475         0.825489         0.110805
 H         1.582149        -0.506692        -1.048037
 H         0.808391         1.194371        -1.234696
 H        -2.887649        -0.346391         1.919331
 H        -3.190538        -1.388025        -0.222527
 H        -2.672627         1.978184         2.240656
 H        -2.872961         2.359734         0.496718
 H        -4.950762         2.247872         2.172086
 H        -5.220012         1.742302         0.463198
 H        -6.318890        -0.169796         1.406284
