19
Iteration:  3669
 C         1.313605         0.391920         0.207327
 C        -0.154272         0.379988         0.272539
 C        -1.314070        -0.048415        -0.003806
 C        -2.748268        -0.316662         0.099964
 O        -3.444380         0.062271        -1.126741
 C        -3.174484         0.468260         1.320162
 C        -4.787768         0.538905         1.330283
 C        -5.352450         0.808602         2.703547
 O        -4.775227         0.698216         3.745624
 H         1.658582         0.644016        -0.833777
 H         1.783409         1.148493         0.804252
 H         1.813446        -0.563322         0.552424
 H        -2.728870        -1.462828         0.326134
 H        -2.988551        -0.514574        -1.771947
 H        -2.745333        -0.118593         2.203676
 H        -2.887261         1.536133         1.340260
 H        -4.969735         1.466349         0.814895
 H        -5.381411        -0.348563         0.945695
 H        -6.435005         1.108698         2.733823
