19
Iteration:   313charge 0 multiplicity 1
 C         1.574611        -0.183965        -0.280799
 C         0.105642        -0.060223        -0.186035
 C        -1.096281        -0.027392        -0.082137
 C        -2.557315         0.138519         0.026356
 O        -3.123537         1.393441        -0.489524
 C        -3.024963         0.159363         1.523859
 C        -4.621227         0.260019         1.628384
 C        -5.221720         0.661104         2.930358
 O        -6.333601         0.360846         3.404649
 H         2.063331         0.321499         0.509258
 H         1.883903        -1.289213        -0.286946
 H         1.881573         0.294758        -1.192105
 H        -3.141234        -0.552957        -0.611530
 H        -2.624918         1.750035        -1.255776
 H        -2.748052        -0.917038         1.946684
 H        -2.544976         1.074878         1.991496
 H        -4.791596         0.883331         0.806709
 H        -5.141668        -0.643398         1.303420
 H        -4.475269         1.394041         3.611179
