19
Iteration:  4633charge 0 multiplicity 1
 C         1.216689         0.197108         0.393143
 C        -0.157397         0.166106         0.219782
 C        -1.340126         0.369307        -0.046451
 C        -2.708925         0.063940         0.098610
 O        -3.462114        -0.230430        -1.051044
 C        -3.297170         1.166619         0.915781
 C        -4.770323         0.888087         1.385964
 C        -5.210257         0.316501         2.749207
 O        -4.667334         0.115580         3.840347
 H         1.563607        -0.584203         1.081144
 H         1.772525         0.187349        -0.608657
 H         1.477044         1.148683         0.786311
 H        -2.692624        -0.730369         0.831295
 H        -2.903360        -0.046074        -1.858656
 H        -2.841228         1.367169         1.857673
 H        -3.229891         2.166063         0.538152
 H        -5.360096         1.773714         1.164413
 H        -5.156537         0.194413         0.561871
 H        -6.347868         0.052076         2.606549
