19
Iteration:  1010
 C         1.563968        -0.157107        -0.331666
 C         0.112851        -0.333825        -0.428034
 C        -1.052289         0.068668        -0.061257
 C        -2.588433         0.160405         0.166063
 O        -3.085467         1.349552        -0.496489
 C        -2.966227         0.306759         1.641370
 C        -4.554850         0.524220         1.707187
 C        -5.260843         0.262501         3.064248
 O        -6.462757         0.473648         3.202639
 H         1.881879        -0.447337         0.653428
 H         2.156417        -0.621327        -1.196076
 H         1.723000         0.928985        -0.436297
 H        -3.051557        -0.636008        -0.307217
 H        -2.687600         1.406174        -1.405186
 H        -2.522918        -0.500378         2.293876
 H        -2.397036         1.147800         2.021515
 H        -4.670755         1.594374         1.406873
 H        -5.116677         0.011803         0.967379
 H        -4.644972        -0.282117         3.782752
