19
Iteration:  1852
 C         1.149579         0.103721         0.677530
 C        -0.238413        -0.023876         0.313156
 C        -1.431052        -0.108933         0.039252
 C        -2.921388         0.031321        -0.240594
 O        -3.120055         0.925240        -1.206843
 C        -3.371537         0.558258         1.112486
 C        -4.941207         0.415540         1.308915
 C        -5.249705         0.569252         2.805724
 O        -4.446457         0.294674         3.684011
 H         1.853579        -0.416826        -0.040042
 H         1.533173         1.068222         0.918064
 H         1.268316        -0.369698         1.699630
 H        -3.563743        -0.865816        -0.380047
 H        -2.391973         1.597667        -1.168800
 H        -2.702927        -0.000365         1.837898
 H        -3.098151         1.594898         0.852082
 H        -5.449865         0.812005         0.432791
 H        -5.034425        -0.652385         1.194991
 H        -6.295310         0.906402         2.988177
