19
Iteration:  2424charge 0 multiplicity 1
 C         1.130168         0.516505         0.342987
 C        -0.258581         0.348293         0.251102
 C        -1.437656         0.015168         0.105496
 C        -2.855342        -0.254742        -0.130264
 O        -3.689489         0.874417        -0.426966
 C        -3.431829        -0.758211         1.275753
 C        -4.894007        -0.345023         1.550837
 C        -4.925338         0.992237         2.299169
 O        -4.120329         1.317450         3.156027
 H         1.390834         1.469019        -0.025548
 H         1.507824         0.399583         1.392140
 H         1.852533        -0.170293        -0.021747
 H        -3.017850        -1.140431        -0.803986
 H        -3.068351         1.631241        -0.307573
 H        -3.323756        -1.875041         1.345698
 H        -2.825497        -0.359540         2.153300
 H        -5.293336         0.019471         0.562516
 H        -5.435570        -1.068793         2.063751
 H        -5.751942         1.626854         1.807507
