19
Iteration:   429
 C         1.444165        -0.298866        -0.504019
 C         0.037573        -0.200639        -0.124619
 C        -1.082287         0.062861         0.223616
 C        -2.530678         0.185709         0.235699
 O        -2.944580         1.235020        -0.758424
 C        -3.143960         0.542495         1.610247
 C        -4.674657         0.701249         1.558331
 C        -5.301667         0.681139         2.974280
 O        -6.162622        -0.149205         3.317453
 H         2.100616         0.183888         0.306952
 H         1.727855        -1.352506        -0.523372
 H         1.692692         0.134674        -1.513889
 H        -2.910154        -0.765122        -0.021137
 H        -2.221109         1.872664        -0.527464
 H        -2.789151        -0.223931         2.306047
 H        -2.609397         1.480864         1.830133
 H        -4.946505         1.572983         0.955227
 H        -5.198435        -0.084196         1.019770
 H        -5.151339         1.450209         3.714667
