19
Iteration:   924
 C         1.500651        -0.326846        -0.418510
 C         0.174058        -0.177690        -0.060455
 C        -0.996015         0.199152         0.078160
 C        -2.595719         0.219239         0.114831
 O        -3.112784         1.403363        -0.641784
 C        -3.171897         0.162361         1.610180
 C        -4.640598         0.526991         1.552552
 C        -5.210078         0.560012         2.955328
 O        -6.283844         0.197059         3.353996
 H         2.136906        -0.620219         0.390563
 H         1.636980        -1.149379        -1.147321
 H         1.984516         0.555276        -0.832557
 H        -3.108319        -0.675368        -0.442315
 H        -2.274088         1.666977        -1.143678
 H        -2.915206        -0.809257         2.083984
 H        -2.562206         0.972506         2.015539
 H        -4.719810         1.596308         1.119509
 H        -5.065389        -0.262806         0.976118
 H        -4.540902         0.912815         3.781100
