19
Iteration:   756
 C         1.329446        -0.518560         0.121629
 C        -0.046809         0.002926         0.031934
 C        -1.223596         0.115370        -0.041734
 C        -2.620803         0.321865        -0.191447
 O        -2.979394         1.646470        -0.615781
 C        -3.317660         0.160066         1.247683
 C        -4.865860         0.335076         1.302679
 C        -5.225651         0.756341         2.836066
 O        -5.499629        -0.023965         3.720796
 H         1.659159        -0.525805         1.193958
 H         1.332851        -1.556212        -0.239185
 H         2.062528         0.014432        -0.486611
 H        -3.035633        -0.450334        -0.774189
 H        -2.194310         1.881882        -1.184651
 H        -2.927250        -0.896489         1.556008
 H        -2.782888         0.896183         1.822883
 H        -5.326453         1.195645         0.605269
 H        -5.295507        -0.721907         1.094190
 H        -5.196033         1.881395         3.237401
