19
Iteration:  1540charge 0 multiplicity 1
 C         1.477283        -0.289263        -0.329639
 C         0.126633         0.032178         0.010020
 C        -1.012086         0.278392         0.191607
 C        -2.543644         0.271446         0.223712
 O        -3.112686         1.000188        -0.785960
 C        -3.216462         0.501523         1.614339
 C        -4.700595         0.361086         1.458077
 C        -5.629238         0.039570         2.557973
 O        -5.689653         0.633392         3.647258
 H         1.538290        -1.262610        -0.679995
 H         1.547976         0.342013        -1.242985
 H         2.292921        -0.115952         0.289059
 H        -2.783482        -0.788492         0.078459
 H        -2.697299         1.820309        -1.155101
 H        -2.934986        -0.263983         2.309321
 H        -2.815117         1.437695         1.919229
 H        -5.149772         1.212936         0.982234
 H        -4.743802        -0.429734         0.715123
 H        -6.460358        -0.669534         2.482178
