19
Iteration:  3217
 C         1.317005         0.325278        -0.443633
 C        -0.007086         0.030649         0.076271
 C        -1.236476         0.194103         0.287142
 C        -2.711413        -0.089468         0.333317
 O        -3.537057         1.045599        -0.097719
 C        -3.148464        -0.606222         1.725438
 C        -4.747210        -0.555471         1.747697
 C        -5.440840         0.715328         2.184101
 O        -4.830913         1.607867         2.730127
 H         1.850802        -0.538866        -0.314816
 H         1.209661         0.517146        -1.530221
 H         1.769865         1.137000         0.071683
 H        -3.059418        -0.853552        -0.507367
 H        -3.154301         1.935047        -0.012313
 H        -2.859770        -1.674159         1.761899
 H        -2.515843        -0.048813         2.464591
 H        -5.039434        -0.979925         0.702295
 H        -5.092022        -1.268771         2.571350
 H        -6.533529         0.938238         1.928207
