19
Iteration:  3210charge 0 multiplicity 1
 C         1.275050         0.364796        -0.507057
 C         0.016891         0.018321         0.146771
 C        -1.177965         0.118587         0.298024
 C        -2.710528        -0.048331         0.313239
 O        -3.560316         1.052241        -0.105565
 C        -3.215681        -0.611865         1.736074
 C        -4.749930        -0.551514         1.750883
 C        -5.408183         0.706716         2.165427
 O        -4.795933         1.608185         2.705499
 H         2.035931        -0.492067        -0.336876
 H         1.054265         0.648419        -1.526480
 H         1.664027         1.289556         0.020969
 H        -2.839230        -0.893599        -0.354373
 H        -3.050467         1.788061         0.315348
 H        -3.047139        -1.678100         1.788168
 H        -2.793026        -0.167971         2.632772
 H        -5.150919        -0.917644         0.786480
 H        -5.108450        -1.263828         2.588575
 H        -6.424352         0.948426         1.819251
