19
Iteration:  2707charge 0 multiplicity 1
 C         1.356503        -0.328401         0.039292
 C         0.033167         0.294621        -0.173946
 C        -1.202888         0.355440        -0.011080
 C        -2.612514         0.156478         0.138414
 O        -3.438430         0.627453        -0.978324
 C        -3.254179         0.502073         1.517369
 C        -4.626747        -0.180128         1.633825
 C        -5.324690         0.182797         2.905749
 O        -5.261549         1.302613         3.399170
 H         2.077338         0.399720         0.592765
 H         1.216022        -1.379167         0.550671
 H         1.756181        -0.693158        -0.925383
 H        -2.673006        -0.965040         0.253786
 H        -2.927550         1.417928        -1.326201
 H        -2.555678         0.469846         2.346098
 H        -3.607085         1.575895         1.496265
 H        -5.132800         0.092463         0.763063
 H        -4.503862        -1.216510         1.577237
 H        -5.892267        -0.598746         3.505406
