19
Iteration:  1147charge 0 multiplicity 1
 C         1.610794        -0.167276        -0.234570
 C         0.119300        -0.068074        -0.268348
 C        -1.060230         0.024511         0.009483
 C        -2.591744         0.212980         0.116655
 O        -2.992449         1.347352        -0.741782
 C        -3.182162         0.193120         1.510273
 C        -4.808528         0.289347         1.506094
 C        -5.406227         0.007641         2.909909
 O        -6.024079         0.799313         3.577423
 H         1.934044        -0.887633         0.554030
 H         2.060174        -0.447247        -1.197657
 H         2.020423         0.810728         0.042985
 H        -2.996378        -0.599068        -0.412049
 H        -2.736740         2.117946        -0.226523
 H        -2.944796        -0.696024         2.183196
 H        -2.800952         1.144374         1.994821
 H        -5.054318         1.343991         1.133986
 H        -5.234112        -0.316248         0.700845
 H        -5.189769        -0.959324         3.435446
