19
Iteration:  4240charge 0 multiplicity 1
 C         1.340904         0.319776        -0.618611
 C        -0.014845         0.389911         0.032448
 C        -1.199044         0.151449         0.332638
 C        -2.521526         0.136986         0.838296
 O        -3.368064        -0.510435        -0.037104
 C        -3.193990         1.341019         1.527480
 C        -4.708934         1.310314         1.380373
 C        -5.530373         0.262010         2.027943
 O        -5.134418        -0.264924         3.029814
 H         2.100640         0.684889         0.080188
 H         1.577891        -0.781268        -0.828104
 H         1.519455         0.981104        -1.468700
 H        -2.635527        -0.492123         1.780950
 H        -3.049540        -0.797541        -0.882611
 H        -2.986722         1.347551         2.604195
 H        -2.926563         2.341299         1.114860
 H        -5.033376         2.338609         1.793258
 H        -5.060570         1.331658         0.301785
 H        -6.542340         0.195999         1.564738
