19
Iteration:    22charge 0 multiplicity 1
 C         1.509529        -0.118107        -0.084169
 C         0.020887        -0.094723        -0.093306
 C        -1.168770         0.126486         0.180708
 C        -2.643571         0.150958        -0.037960
 O        -3.045989         1.329688        -0.791273
 C        -3.259253         0.091012         1.359669
 C        -4.764901         0.328822         1.440197
 C        -5.110765         0.688856         2.883490
 O        -5.955509         0.243176         3.630591
 H         1.863751         0.188126         0.888609
 H         1.907003        -1.132636        -0.274420
 H         1.929098         0.556705        -0.819828
 H        -2.916262        -0.724890        -0.564993
 H        -2.251001         1.553771        -1.336808
 H        -3.135249        -0.881665         1.791371
 H        -2.702669         0.732411         2.123775
 H        -5.029532         1.160127         0.814446
 H        -5.335797        -0.529338         1.136768
 H        -4.341987         1.581532         3.210494
