19
Iteration:  3317charge 0 multiplicity 1
 C         1.301027        -0.033617         0.106188
 C        -0.190405        -0.224566         0.043141
 C        -1.338351         0.087839        -0.126546
 C        -2.776229         0.233906        -0.047112
 O        -3.653783         1.356288        -0.528756
 C        -2.949104        -0.013121         1.464412
 C        -4.302306        -0.575650         2.053335
 C        -5.365028         0.364426         2.443919
 O        -5.098791         1.435231         2.961112
 H         1.763776        -0.956435        -0.042068
 H         1.682222         0.530358        -0.739352
 H         1.555836         0.535450         0.994134
 H        -2.991997        -0.719996        -0.581263
 H        -3.566449         1.993341         0.227996
 H        -2.194245        -0.823299         1.670628
 H        -2.538497         0.867386         2.033661
 H        -4.761610        -1.311836         1.308891
 H        -4.055811        -1.184970         2.890425
 H        -6.431614         0.127069         2.225969
