19
Iteration:  4280charge 0 multiplicity 1
 C         1.168635         0.417628        -0.542079
 C        -0.167774         0.031064        -0.114593
 C        -1.127496         0.166632         0.633987
 C        -2.628135         0.126003         1.005425
 O        -3.351602        -0.343610        -0.078682
 C        -3.201910         1.476138         1.263687
 C        -4.669295         1.479489         1.409468
 C        -5.318987         0.227373         2.019437
 O        -5.082439        -0.454348         2.979948
 H         1.679671         0.751189         0.387437
 H         1.717778        -0.380195        -0.995429
 H         1.187530         1.178470        -1.364366
 H        -2.656344        -0.567637         1.870639
 H        -2.921667        -1.226634        -0.292934
 H        -2.616470         1.830353         2.115186
 H        -2.897474         2.097108         0.420405
 H        -5.068739         2.340435         1.841440
 H        -5.025669         1.458422         0.335342
 H        -6.125594        -0.125866         1.350179
