19
Iteration:  3513charge 0 multiplicity 1
 C         1.514877         0.244830        -0.513597
 C         0.060929         0.032043        -0.186778
 C        -1.034959        -0.019227         0.299769
 C        -2.596243        -0.134771         0.306988
 O        -3.083965         0.797823        -0.648451
 C        -3.366353        -0.022058         1.615216
 C        -4.896112        -0.139822         1.536185
 C        -5.684006         0.500704         2.686076
 O        -5.282959         1.393042         3.403289
 H         1.793305        -0.163432        -1.472609
 H         1.724540         1.347669        -0.508872
 H         2.085503        -0.280786         0.246028
 H        -2.646192        -1.093050        -0.230331
 H        -2.893909         1.680444        -0.265964
 H        -2.985861        -0.596565         2.436292
 H        -3.124325         1.016401         1.933601
 H        -5.176008         0.417972         0.663913
 H        -5.345671        -1.044953         1.297944
 H        -6.545687        -0.109769         3.075641
