19
Iteration:  2464charge 0 multiplicity 1
 C         1.163702         0.669293         0.106645
 C        -0.199979         0.219768         0.260896
 C        -1.384018         0.002682         0.307220
 C        -2.768808        -0.331899         0.075582
 O        -3.404375         0.881761        -0.564668
 C        -3.596103        -0.763305         1.287200
 C        -5.021067        -0.176873         1.537276
 C        -5.082462         0.947909         2.425176
 O        -4.172998         1.264267         3.177407
 H         1.120786         1.723428        -0.334445
 H         1.673426         0.554454         1.089647
 H         1.587402        -0.047839        -0.673084
 H        -2.789263        -1.027989        -0.754234
 H        -2.728578         1.426904        -0.975078
 H        -3.770922        -1.803911         1.018611
 H        -2.924585        -0.601240         2.146107
 H        -5.428813         0.101038         0.514174
 H        -5.718674        -1.096121         1.802533
 H        -6.099918         1.395275         2.544871
