19
Iteration:  3294
 C         1.339598        -0.033112         0.081396
 C        -0.123093        -0.026443        -0.118330
 C        -1.337742         0.187005        -0.185955
 C        -2.862056         0.108795         0.081976
 O        -3.554586         1.248284        -0.404609
 C        -3.003757        -0.185973         1.575036
 C        -4.371180        -0.655224         1.963115
 C        -5.336832         0.484812         2.359691
 O        -5.112151         1.522991         2.971892
 H         1.689849        -1.037778         0.063210
 H         1.855988         0.415889        -0.799201
 H         1.594680         0.564512         0.948066
 H        -3.137485        -0.777532        -0.436911
 H        -3.340492         1.913919         0.267325
 H        -2.083394        -0.744487         1.852819
 H        -2.886212         0.820864         2.070359
 H        -4.844350        -1.219352         1.117658
 H        -4.454002        -1.290395         2.776513
 H        -6.405767         0.248465         2.137185
