19
Iteration:  4052charge 0 multiplicity 1
 C         1.165031         0.714005        -0.150231
 C        -0.210159         0.185121         0.143472
 C        -1.315782        -0.013711         0.485969
 C        -2.767322        -0.291296         0.663834
 O        -3.179609        -0.424440        -0.764497
 C        -3.186114         1.050134         1.300990
 C        -4.725947         1.306084         1.339571
 C        -5.463257         0.575192         2.464297
 O        -4.715584        -0.043436         3.154875
 H         1.283459         1.804620         0.079049
 H         1.892610         0.132651         0.434757
 H         1.452307         0.509145        -1.231490
 H        -3.001719        -1.233348         1.239786
 H        -3.672612        -1.286874        -0.850708
 H        -2.860118         1.081661         2.362829
 H        -2.755978         1.888263         0.753832
 H        -5.117107         2.356228         1.279772
 H        -5.273652         0.940314         0.421955
 H        -6.571365         0.675572         2.464832
