19
Iteration:  1641
 C         1.397781         0.061144        -0.036252
 C        -0.033831         0.040630         0.223865
 C        -1.227607        -0.029123         0.223358
 C        -2.657486        -0.006627        -0.039927
 O        -2.936889         1.158519        -0.940455
 C        -3.383755         0.308584         1.379557
 C        -4.946001         0.231627         1.362709
 C        -5.616800         0.644082         2.690470
 O        -5.064522         0.364047         3.728210
 H         1.597390        -0.837013        -0.607587
 H         1.556093         0.939920        -0.649440
 H         2.016226         0.214716         0.854732
 H        -3.016289        -1.079632        -0.378540
 H        -2.116083         1.211261        -1.480086
 H        -3.148093        -0.367373         2.177910
 H        -3.079662         1.341790         1.693866
 H        -5.443849         0.794689         0.583470
 H        -5.090319        -0.834246         1.058639
 H        -6.640738         1.000713         2.686136
