19
Iteration:  3938charge 0 multiplicity 1
 C         1.245781         0.175909         0.484916
 C        -0.155145         0.356325         0.141650
 C        -1.409207         0.375429         0.073115
 C        -2.805477        -0.017933         0.397858
 O        -3.354061        -0.761178        -0.648303
 C        -3.572027         1.454643         0.892258
 C        -5.012452         1.290258         1.415133
 C        -5.180793         0.372076         2.596818
 O        -4.204675        -0.048719         3.134324
 H         1.819284         1.105675         0.452831
 H         1.229625        -0.192791         1.552175
 H         1.732935        -0.605306        -0.095071
 H        -2.784768        -0.743199         1.272308
 H        -3.393130        -0.025540        -1.298271
 H        -2.894881         1.960099         1.576224
 H        -3.683311         1.931187        -0.104832
 H        -5.464870         2.306764         1.533306
 H        -5.694104         0.742354         0.572562
 H        -6.234771         0.084250         2.908400
