19
Iteration:  2483charge 0 multiplicity 1
 C         1.195175         0.690054         0.006653
 C        -0.198612         0.248637         0.133737
 C        -1.359332        -0.087193         0.515722
 C        -2.782208        -0.299374         0.022586
 O        -3.274477         0.857363        -0.548475
 C        -3.662295        -0.807869         1.263060
 C        -5.080185        -0.219122         1.390953
 C        -5.139706         0.923282         2.571832
 O        -4.193100         1.324859         3.217389
 H         1.185452         1.813088        -0.255700
 H         1.589084         0.695136         1.019324
 H         1.747554         0.172895        -0.834948
 H        -2.713432        -1.117876        -0.737831
 H        -2.521823         1.232447        -0.990424
 H        -3.664928        -1.913038         1.358699
 H        -3.303300        -0.305795         2.153574
 H        -5.598977         0.318771         0.640754
 H        -5.822652        -0.971322         1.589331
 H        -6.069423         1.545113         2.682030
