19
Iteration:  1219
 C         1.425142        -0.148922         0.038157
 C        -0.006428        -0.065661         0.038589
 C        -1.220261         0.060422        -0.110905
 C        -2.618196         0.186886        -0.068963
 O        -3.234385         1.525781        -0.522248
 C        -3.142100         0.075493         1.308233
 C        -4.730805         0.018160         1.483406
 C        -5.120645         0.030393         2.886409
 O        -5.706219         0.966797         3.386780
 H         1.763301        -0.986611         0.706994
 H         1.814623        -0.242658        -0.950378
 H         1.882853         0.761897         0.492083
 H        -3.248252        -0.451707        -0.768820
 H        -2.590592         1.760470        -1.181123
 H        -2.805965        -0.878730         1.668040
 H        -2.864832         0.851706         2.024889
 H        -5.201886         0.819487         0.875646
 H        -5.073043        -0.919300         0.914158
 H        -4.697768        -0.696296         3.665964
