19
Iteration:   620charge 0 multiplicity 1
 C         1.188606        -0.467891         0.296680
 C        -0.219328        -0.192942         0.072476
 C        -1.364979         0.142402        -0.134025
 C        -2.785472         0.365292        -0.310565
 O        -2.864776         1.654490        -1.018499
 C        -3.120570         0.495936         1.316315
 C        -4.646544         0.443363         1.603266
 C        -4.963350         0.544016         3.056091
 O        -5.726924        -0.230955         3.617930
 H         1.535722        -0.122743         1.287653
 H         1.415203        -1.581026         0.256433
 H         1.845334         0.023557        -0.477645
 H        -3.123624        -0.444165        -0.918541
 H        -2.061352         1.666130        -1.550296
 H        -2.566397        -0.269154         1.745533
 H        -2.818424         1.506136         1.688811
 H        -5.188674         1.254967         1.069461
 H        -5.137802        -0.475201         1.105276
 H        -4.521526         1.446654         3.572365
