19
Iteration:  1811charge 0 multiplicity 1
 C         1.265470         0.183395         0.794569
 C        -0.242591        -0.084452         0.329888
 C        -1.430651        -0.045291        -0.010156
 C        -2.856699         0.008642        -0.257118
 O        -3.171808         0.831597        -1.363390
 C        -3.481329         0.338948         1.075689
 C        -4.989083         0.661874         1.327794
 C        -5.225019         0.607097         2.883818
 O        -4.386946         0.253843         3.666235
 H         1.997821        -0.302981         0.173053
 H         1.516576         1.307020         0.908976
 H         1.453546        -0.074697         1.848019
 H        -3.162823        -0.950438        -0.756407
 H        -2.732262         1.680092        -1.345585
 H        -3.355227        -0.593077         1.655840
 H        -2.775221         0.936044         1.667991
 H        -5.433038         1.671992         1.176979
 H        -5.787321        -0.041559         0.901238
 H        -6.248712         0.687575         3.346297
