19
Iteration:   780charge 0 multiplicity 1
 C         1.475364        -0.431600         0.054630
 C         0.026648        -0.144613        -0.085061
 C        -1.219505        -0.006464         0.028957
 C        -2.758489         0.385792        -0.101524
 O        -2.861777         1.732556        -0.622735
 C        -3.412890         0.178347         1.353494
 C        -4.927007         0.241905         1.370333
 C        -5.224670         0.757484         2.772479
 O        -5.536122         0.007982         3.667355
 H         1.748262        -0.324650         1.066032
 H         1.818689        -1.449955        -0.309609
 H         2.035291         0.291410        -0.493655
 H        -3.301997        -0.301990        -0.738540
 H        -2.458469         1.507276        -1.479620
 H        -3.006534        -0.867547         1.617758
 H        -2.941146         0.893930         2.025331
 H        -5.399592         1.195479         0.816394
 H        -5.487599        -0.665953         1.163898
 H        -5.168586         1.857860         3.085016
