19
Iteration:  2643
 C         1.371392         0.146356         0.130753
 C        -0.087654         0.037702         0.064442
 C        -1.292601        -0.012534        -0.170773
 C        -2.763613        -0.009161        -0.003703
 O        -3.474865         0.814937        -0.903380
 C        -3.134412         0.143714         1.454318
 C        -4.549989        -0.297565         1.674012
 C        -5.399022         0.546760         2.660791
 O        -5.026316         1.303404         3.543648
 H         1.667604         1.167916         0.401578
 H         1.847080        -0.583846         0.884476
 H         1.710354        -0.056687        -0.888693
 H        -3.073486        -0.989591        -0.340936
 H        -3.378363         1.750576        -0.662851
 H        -2.353679        -0.310079         1.977487
 H        -3.006388         1.089352         1.937407
 H        -5.079274        -0.234331         0.694168
 H        -4.701223        -1.309777         2.073006
 H        -6.355170         0.686555         2.132362
