19
Iteration:  4407
 C         1.405414         0.326403        -0.309892
 C        -0.028771         0.084857        -0.090363
 C        -1.207942         0.347522         0.253031
 C        -2.583959         0.162999         0.811645
 O        -3.608798        -0.380324        -0.089271
 C        -3.206113         1.447517         1.252454
 C        -4.754679         1.267245         1.404289
 C        -5.455652         0.387912         2.324188
 O        -4.910766        -0.532297         2.896222
 H         1.847085         0.457638         0.726441
 H         1.985859        -0.481196        -0.800515
 H         1.749579         1.284454        -0.737713
 H        -2.361105        -0.437659         1.750971
 H        -3.370118        -1.102503        -0.670175
 H        -2.703889         1.717492         2.211072
 H        -3.097232         2.220662         0.445611
 H        -4.963726         2.368888         1.684615
 H        -5.231693         1.222424         0.465121
 H        -6.573850         0.732384         2.446816
