19
Iteration:  1110
 C         1.619890        -0.190251        -0.447547
 C         0.150952        -0.060840         0.037276
 C        -1.112573         0.106120         0.167807
 C        -2.597224         0.141539         0.091226
 O        -2.967460         1.344154        -0.748917
 C        -3.249379         0.130157         1.481155
 C        -4.767155         0.442761         1.446624
 C        -5.277460         0.124504         2.932306
 O        -6.163717         0.664269         3.582662
 H         2.304287        -0.866318         0.164701
 H         1.612487        -0.513132        -1.501505
 H         2.107707         0.831465        -0.490737
 H        -2.988545        -0.792614        -0.503231
 H        -2.155598         1.872987        -0.968146
 H        -2.948400        -0.780700         2.125745
 H        -2.828911         0.954985         2.132201
 H        -5.130925         1.573112         1.286236
 H        -5.427382        -0.229244         0.805969
 H        -4.690224        -0.748657         3.289103
