19
Iteration:  2415
 C         1.152983         0.483306         0.440157
 C        -0.327852         0.333179         0.153643
 C        -1.492539         0.042779         0.084033
 C        -2.887573        -0.233453        -0.099317
 O        -3.654888         0.870572        -0.414214
 C        -3.401956        -0.779789         1.297296
 C        -4.832418        -0.320698         1.544898
 C        -4.919851         0.965042         2.277227
 O        -4.118090         1.330244         3.131848
 H         1.415360         1.492693         0.119210
 H         1.208981         0.527965         1.558629
 H         1.752607        -0.279942        -0.130714
 H        -3.024920        -0.917818        -0.985074
 H        -3.272881         1.740080        -0.198078
 H        -3.148223        -1.857917         1.257616
 H        -2.705330        -0.247517         1.958942
 H        -5.473183        -0.505815         0.666403
 H        -5.269189        -1.027733         2.211106
 H        -5.596727         1.750379         1.855343
