19
Iteration:  3285
 C         1.377959        -0.004373         0.051538
 C        -0.182135         0.100824        -0.184655
 C        -1.400985         0.185090        -0.222314
 C        -2.718357         0.048117         0.146963
 O        -3.516899         1.197528        -0.340043
 C        -3.010213        -0.188527         1.613756
 C        -4.479037        -0.613323         1.947897
 C        -5.355756         0.507261         2.311699
 O        -5.076795         1.500085         2.941960
 H         1.472903        -1.045130         0.164977
 H         1.936478         0.265786        -0.792739
 H         1.755237         0.388062         0.978816
 H        -3.137085        -0.860882        -0.429554
 H        -3.170972         1.960064         0.151692
 H        -2.441635        -1.003328         2.039189
 H        -2.814796         0.688632         2.259459
 H        -5.042189        -1.155105         1.111198
 H        -4.402619        -1.261496         2.851395
 H        -6.450540         0.237282         2.209658
