19
Iteration:  4782charge 0 multiplicity 1
 C         1.153661         0.377214         0.284715
 C        -0.266505        -0.032999         0.309200
 C        -1.497980        -0.049407         0.483639
 C        -2.932989         0.017775         0.207710
 O        -3.018842        -0.041259        -1.267662
 C        -3.625483         1.239199         0.766256
 C        -5.009323         0.928821         1.442889
 C        -5.020476         0.157429         2.726856
 O        -4.323897         0.330444         3.707187
 H         1.730744        -0.514349        -0.012863
 H         1.335186         1.150811        -0.410861
 H         1.659492         0.599140         1.265499
 H        -3.476478        -0.898468         0.480355
 H        -2.264494        -0.624634        -1.563568
 H        -3.153371         1.931119         1.535561
 H        -3.843595         1.891472        -0.091989
 H        -5.459447         1.893681         1.802812
 H        -5.754958         0.515083         0.704858
 H        -5.878370        -0.517236         2.782100
