19
Iteration:  4088charge 0 multiplicity 1
 C         1.236021         0.773498        -0.442397
 C        -0.112031         0.287810         0.129559
 C        -1.176859        -0.229165         0.669368
 C        -2.693390        -0.230258         0.750144
 O        -3.165689        -0.401295        -0.741684
 C        -3.118478         1.105657         1.272563
 C        -4.718345         1.222580         1.345899
 C        -5.509026         0.609681         2.407349
 O        -5.091261        -0.125591         3.267660
 H         1.593932         1.774369        -0.156108
 H         2.035535        -0.010499        -0.088848
 H         1.217402         0.689570        -1.528922
 H        -3.169563        -0.920175         1.435102
 H        -3.584512        -1.275653        -0.921172
 H        -2.627647         1.125045         2.287674
 H        -2.629415         1.952682         0.666593
 H        -4.974624         2.288453         1.657438
 H        -5.120236         1.073240         0.391257
 H        -6.525503         0.937796         2.434541
