19
Iteration:  3730
 C         1.245541         0.418738         0.502775
 C        -0.053116        -0.047742         0.072623
 C        -1.301101         0.012172        -0.064090
 C        -2.737275        -0.192018         0.147557
 O        -3.494816        -0.130695        -1.152824
 C        -3.353004         0.966825         1.149876
 C        -4.953331         0.793666         1.375132
 C        -5.302980         0.517693         2.786866
 O        -4.470818         0.571300         3.684480
 H         1.791169         0.998001        -0.272388
 H         1.085230         1.167918         1.426426
 H         1.951783        -0.359803         0.804403
 H        -2.896450        -1.204532         0.574431
 H        -2.939301        -0.199312        -1.946327
 H        -2.906304         0.885954         2.114253
 H        -2.924226         1.893553         0.733751
 H        -5.554296         1.531680         0.750650
 H        -5.276692        -0.085430         0.826977
 H        -6.412281         0.405252         3.002593
