19
Iteration:  4690
 C         1.337766         0.091893         0.488550
 C        -0.121459         0.215528         0.095260
 C        -1.336108         0.331592         0.130145
 C        -2.766489         0.051080         0.165750
 O        -3.391082         0.012896        -1.063206
 C        -3.554607         1.087018         0.951275
 C        -5.042047         0.634811         1.359850
 C        -5.244622         0.400596         2.795545
 O        -4.322444         0.236423         3.579500
 H         1.525164        -0.899479         0.911206
 H         1.902426         0.396873        -0.400780
 H         1.484822         0.788059         1.319044
 H        -2.777164        -0.856785         0.807519
 H        -2.751400        -0.287972        -1.698773
 H        -2.958988         1.240249         1.821917
 H        -3.596804         1.937374         0.237192
 H        -5.762154         1.401119         1.075175
 H        -5.625097        -0.201056         0.825361
 H        -6.279235         0.461861         3.174412
