19
Iteration:  2873
 C         1.417176         0.116882        -0.039668
 C        -0.035053        -0.089703         0.075133
 C        -1.276674        -0.226844         0.008193
 C        -2.782894        -0.078330         0.003992
 O        -3.295215         1.036119        -0.881506
 C        -3.357532         0.418043         1.329341
 C        -4.442781        -0.370383         1.891499
 C        -5.228958         0.324950         2.989969
 O        -5.312926         1.521450         3.193401
 H         1.820456         0.630787         0.826029
 H         1.999568        -0.748900        -0.276722
 H         1.543208         0.689345        -0.947029
 H        -3.174245        -1.061611        -0.237734
 H        -3.319023         0.542712        -1.726189
 H        -2.597576         0.384222         2.141307
 H        -3.639280         1.476397         1.315523
 H        -5.298670        -0.428948         1.116750
 H        -4.304076        -1.399355         2.166033
 H        -5.832801        -0.357348         3.696641
