19
Iteration:  3859charge 0 multiplicity 1
 C         1.220992         0.126759         0.362518
 C        -0.215103         0.070874         0.453756
 C        -1.404532         0.246559         0.475120
 C        -2.990648         0.181465         0.451835
 O        -3.351009        -0.318254        -0.890132
 C        -3.789030         1.418661         0.681596
 C        -5.102644         0.872929         1.231891
 C        -4.955893         0.341983         2.633422
 O        -3.954238         0.136342         3.273527
 H         1.463253         1.017028        -0.201996
 H         1.700104         0.140226         1.389564
 H         1.575357        -0.744799        -0.151549
 H        -3.192728        -0.565886         1.237637
 H        -2.449302        -0.493369        -1.210413
 H        -3.152469         2.146933         1.227027
 H        -3.881994         1.694201        -0.416226
 H        -5.878421         1.690360         1.255042
 H        -5.480159         0.227477         0.295603
 H        -5.954078         0.390102         3.137483
