19
Iteration:  4207
 C         1.323552         0.297248        -0.557367
 C        -0.055488         0.487065         0.040839
 C        -1.267740         0.547209         0.357825
 C        -2.534734        -0.037737         0.798525
 O        -3.340964        -0.705954        -0.167646
 C        -3.168072         1.099291         1.571485
 C        -4.624991         1.405804         1.277860
 C        -5.570370         0.402888         2.142389
 O        -5.147090        -0.221391         3.103128
 H         2.086330         0.636836         0.143605
 H         1.582307        -0.810213        -0.767057
 H         1.437454         0.604063        -1.590812
 H        -2.390279        -0.923438         1.498452
 H        -3.184730        -0.282222        -1.025088
 H        -2.976729         0.998861         2.658409
 H        -2.688483         2.078828         1.349948
 H        -4.825813         2.537095         1.354566
 H        -4.874613         1.061252         0.216095
 H        -6.596571         0.202349         1.808301
