19
Iteration:  4924charge 0 multiplicity 1
 C         1.225236         0.270896         0.591375
 C        -0.131227         0.278336         0.004335
 C        -1.335147         0.193712         0.014568
 C        -2.718021         0.075187         0.333922
 O        -3.458170        -0.443278        -0.863953
 C        -3.531986         1.260858         0.879883
 C        -5.014774         1.077658         1.278406
 C        -5.191164         0.466868         2.752199
 O        -4.300984        -0.070438         3.417869
 H         2.156982        -0.036681         0.128762
 H         1.283323         1.307042         0.859161
 H         1.218064        -0.371448         1.538951
 H        -2.714739        -0.702574         1.169195
 H        -2.812460        -0.458874        -1.631783
 H        -2.988059         1.567667         1.798363
 H        -3.315529         2.066319         0.222250
 H        -5.503033         2.041017         1.198626
 H        -5.618237         0.415407         0.610911
 H        -6.183721         0.600366         3.149875
