19
Iteration:  4147charge 0 multiplicity 1
 C         1.349481         0.615464        -0.520673
 C         0.031127         0.202844        -0.086726
 C        -1.088858         0.078443         0.439070
 C        -2.476573        -0.083453         0.769102
 O        -3.341080        -0.516720        -0.366200
 C        -3.145112         1.157985         1.490501
 C        -4.702181         1.218219         1.359247
 C        -5.639147         0.539148         2.301761
 O        -5.329710        -0.161142         3.221437
 H         1.881408         1.429118         0.006183
 H         1.942143        -0.279984        -0.449697
 H         1.335855         0.915791        -1.593477
 H        -2.437449        -0.929454         1.479044
 H        -2.807265        -0.481118        -1.202807
 H        -2.704096         1.102395         2.496893
 H        -2.873967         2.099927         1.012361
 H        -4.985132         2.257726         1.251543
 H        -4.914926         0.824752         0.307875
 H        -6.667014         0.841837         2.173677
