19
Iteration:  1520
 C         1.521909        -0.317011        -0.392589
 C         0.119339         0.012645         0.009174
 C        -1.057084         0.397459         0.183077
 C        -2.505280         0.185497         0.224511
 O        -3.145044         1.106701        -0.831469
 C        -3.125480         0.453888         1.644854
 C        -4.702742         0.291416         1.434995
 C        -5.639842         0.087623         2.603691
 O        -5.803151         0.648988         3.710822
 H         1.658019        -1.354868        -0.355979
 H         1.966269         0.270853        -1.245365
 H         1.990589        -0.080912         0.534726
 H        -2.559439        -0.802811        -0.090830
 H        -2.495750         1.281465        -1.526133
 H        -2.678404        -0.299502         2.132366
 H        -2.890668         1.442886         1.894089
 H        -4.861898         1.289796         1.031167
 H        -5.052328        -0.489950         0.640285
 H        -6.264799        -0.918621         2.615549
