19
Iteration:  4620charge 0 multiplicity 1
 C         1.314910         0.249062         0.368210
 C        -0.152585         0.142904         0.185546
 C        -1.367269         0.367624        -0.061125
 C        -2.750370        -0.030677         0.230540
 O        -3.451605        -0.229429        -1.076198
 C        -3.348282         1.155249         1.119255
 C        -4.808397         0.958766         1.313086
 C        -5.209016         0.293900         2.693778
 O        -4.658224         0.156338         3.767096
 H         1.854856        -0.429497         1.047113
 H         1.726207         0.048422        -0.660403
 H         1.567636         1.249980         0.702327
 H        -2.828856        -1.090707         0.546995
 H        -2.872509         0.122698        -1.734896
 H        -2.594612         1.152379         1.886354
 H        -3.171887         1.875450         0.326860
 H        -5.324890         1.920205         1.516366
 H        -5.419413         0.409024         0.617905
 H        -6.328864        -0.024485         2.685634
