19
Iteration:  4103
 C         1.172695         0.684171        -0.489601
 C         0.026448         0.271423         0.219746
 C        -1.099879        -0.159965         0.559591
 C        -2.569287        -0.208962         0.636480
 O        -3.233789        -0.375692        -0.620767
 C        -3.087156         1.130846         1.297446
 C        -4.632340         1.272066         1.388075
 C        -5.611431         0.604290         2.404754
 O        -5.221799        -0.169050         3.295123
 H         1.410639         1.705781        -0.143180
 H         2.078061         0.136893        -0.322017
 H         0.888878         0.804223        -1.543342
 H        -2.877323        -1.100889         1.209365
 H        -3.441856        -1.346169        -0.694504
 H        -2.582246         1.359633         2.235351
 H        -2.859875         1.871582         0.541556
 H        -4.948739         2.312281         1.234488
 H        -5.038352         0.796015         0.427047
 H        -6.730230         0.734673         2.259688
