19
Iteration:  3097
 C         1.006043         0.764747        -0.309851
 C        -0.106732         0.003371        -0.016265
 C        -1.268035        -0.348540         0.179035
 C        -2.694431        -0.350458         0.244819
 O        -3.273892         1.084144         0.303910
 C        -3.280275        -0.841322         1.638148
 C        -4.774568        -0.544190         1.749208
 C        -5.262007         0.878125         2.121514
 O        -4.679210         1.851993         2.547978
 H         1.900755         0.635326         0.272995
 H         1.253182         0.570872        -1.392750
 H         0.674765         1.795839        -0.133021
 H        -3.133254        -0.914264        -0.553268
 H        -3.401011         1.097507        -0.669306
 H        -2.813754        -1.826500         1.825341
 H        -2.706901        -0.148204         2.260107
 H        -5.251179        -0.990902         0.821391
 H        -5.241835        -0.999359         2.698481
 H        -6.457894         0.847706         2.140627
