19
Iteration:  1702charge 0 multiplicity 1
 C         1.308762         0.206197         0.563520
 C        -0.062524        -0.071508         0.004655
 C        -1.244808        -0.025910        -0.164709
 C        -2.775740        -0.015387        -0.085737
 O        -3.285823         1.066568        -0.912101
 C        -3.270838         0.102892         1.296125
 C        -4.726226         0.409965         1.306916
 C        -5.356255         0.846981         2.746685
 O        -4.955585         0.270877         3.710276
 H         2.127276        -0.448070         0.223617
 H         1.627558         1.215101         0.078562
 H         1.354593         0.132760         1.646723
 H        -3.175820        -0.963658        -0.447252
 H        -3.119579         0.848347        -1.866169
 H        -2.969370        -0.850446         1.756442
 H        -2.600091         0.865314         1.664435
 H        -5.088008         1.242719         0.656966
 H        -5.420102        -0.487619         1.126701
 H        -6.344521         1.350960         2.558170
