19
Iteration:  3576charge 0 multiplicity 1
 C         1.219315         0.431017        -0.312143
 C        -0.124499         0.135189         0.021997
 C        -1.248388        -0.227321         0.275219
 C        -2.610997        -0.342709         0.197394
 O        -3.101306         0.573729        -0.865475
 C        -3.193851         0.211699         1.592845
 C        -4.670002         0.134714         1.520323
 C        -5.553367         0.765266         2.528976
 O        -5.147635         1.028077         3.646459
 H         1.431857         0.244396        -1.342545
 H         1.650792         1.416191        -0.022899
 H         1.807688        -0.209280         0.294373
 H        -3.192605        -1.303765        -0.064678
 H        -2.427491         1.216729        -1.164962
 H        -2.975388        -0.516868         2.378202
 H        -2.768477         1.194804         1.830590
 H        -4.837825         0.809530         0.581078
 H        -4.938301        -0.991947         1.149816
 H        -6.593360         0.964851         2.159381
