19
Iteration:  2492
 C         1.188937         0.727117        -0.048377
 C        -0.210153         0.270345         0.146121
 C        -1.300503        -0.127709         0.456268
 C        -2.773307        -0.360462         0.128213
 O        -3.225487         0.865661        -0.547749
 C        -3.707077        -0.761408         1.301999
 C        -5.145684        -0.150976         1.407045
 C        -5.124878         0.910333         2.504610
 O        -4.219737         1.319183         3.241186
 H         1.050971         1.745171        -0.274195
 H         1.596531         0.490462         0.922575
 H         1.787625         0.156793        -0.708947
 H        -2.786677        -1.022893        -0.761893
 H        -2.509814         1.247432        -1.035725
 H        -3.701571        -1.864210         1.264994
 H        -3.030448        -0.402386         2.106921
 H        -5.397064         0.304788         0.455467
 H        -5.771389        -0.936216         1.515121
 H        -6.223206         1.007870         2.854474
