19
Iteration:   123charge 0 multiplicity 1
 C         1.346171         0.125731         0.127027
 C        -0.033631        -0.127461        -0.159885
 C        -1.238025        -0.198723        -0.241797
 C        -2.659443         0.094727        -0.087020
 O        -3.018498         1.506965        -0.350969
 C        -3.186165        -0.257093         1.299423
 C        -4.634838         0.122676         1.469989
 C        -4.925624         0.764548         2.803248
 O        -5.933786         0.554278         3.474766
 H         1.394849         0.574903         1.160604
 H         1.901150        -0.728471         0.187351
 H         1.862448         0.820599        -0.562727
 H        -3.188464        -0.511409        -0.748475
 H        -3.675520         1.516993        -1.060678
 H        -3.077880        -1.294010         1.520392
 H        -2.688632         0.504427         1.911102
 H        -4.916359         0.814810         0.724427
 H        -5.303057        -0.778303         1.387536
 H        -4.118688         1.564714         3.149257
