19
Iteration:  1727
 C         1.199347         0.209472         0.704090
 C        -0.107936        -0.032954         0.073730
 C        -1.311618         0.009304        -0.230447
 C        -2.786576        -0.063076        -0.209937
 O        -3.414759         0.946787        -0.947724
 C        -3.203492         0.100624         1.299381
 C        -4.682182         0.547450         1.313211
 C        -5.247582         0.717431         2.658403
 O        -4.854044         0.285644         3.740861
 H         2.000308        -0.431484         0.443778
 H         1.639672         1.206599         0.525820
 H         1.097349        -0.007647         1.754403
 H        -3.072849        -1.001984        -0.605829
 H        -2.827426         1.366301        -1.640204
 H        -3.157944        -0.840876         1.808483
 H        -2.493748         0.863824         1.528616
 H        -4.995165         1.548932         1.103343
 H        -5.235968        -0.123711         0.719295
 H        -5.979560         1.575055         2.543769
