19
Iteration:  3058
 C         1.107713         0.615222        -0.156599
 C        -0.230510         0.165234        -0.002723
 C        -1.354316        -0.215430         0.028166
 C        -2.774434        -0.278984         0.258178
 O        -3.223348         1.065337        -0.182498
 C        -3.149609        -0.695656         1.693869
 C        -4.762526        -0.526041         1.962173
 C        -5.330429         0.832930         2.147209
 O        -4.693835         1.663255         2.748285
 H         1.765821         0.210437         0.680496
 H         1.521014         0.144212        -1.038556
 H         1.278913         1.694802        -0.281922
 H        -3.244600        -0.951967        -0.541243
 H        -3.268782         1.096627        -1.153107
 H        -2.905459        -1.753057         1.869258
 H        -2.643787        -0.093353         2.465036
 H        -5.432764        -1.005390         1.265706
 H        -5.059379        -0.992759         2.904025
 H        -6.398558         1.014536         1.785500
