19
Iteration:  2943charge 0 multiplicity 1
 C         1.322546        -0.087697         0.155869
 C        -0.040520         0.333058        -0.092325
 C        -1.254465         0.315393        -0.126007
 C        -2.688764        -0.060180         0.020419
 O        -3.730945         0.695802        -0.731638
 C        -3.080011        -0.022062         1.508930
 C        -4.486772        -0.409759         1.910267
 C        -5.374333         0.532549         2.649456
 O        -4.992439         1.578145         3.107509
 H         1.352190        -0.056581         1.270092
 H         1.531292        -1.172048        -0.233367
 H         2.017807         0.657616        -0.347489
 H        -2.837859        -1.104389        -0.255446
 H        -3.324509         1.548365        -0.975407
 H        -2.434829        -0.673084         2.118734
 H        -2.709119         0.969624         1.779098
 H        -4.949225        -0.942196         1.119328
 H        -4.390437        -1.208763         2.554831
 H        -6.472439         0.173068         2.791464
