19
Iteration:   386charge 0 multiplicity 1
 C         1.431143        -0.170082        -0.522367
 C         0.034302        -0.089374        -0.075386
 C        -1.118882        -0.254391         0.214165
 C        -2.533876         0.232666         0.171147
 O        -2.768098         1.362189        -0.739633
 C        -3.144490         0.460563         1.612055
 C        -4.665318         0.494576         1.632290
 C        -5.311405         0.634357         2.964560
 O        -6.263912         0.029197         3.369114
 H         2.131591         0.393620         0.176761
 H         1.707494        -1.223351        -0.533424
 H         1.519688         0.306211        -1.525785
 H        -3.192399        -0.505163        -0.306035
 H        -2.457077         1.190255        -1.661825
 H        -2.812957        -0.338857         2.152463
 H        -2.878015         1.492220         1.956107
 H        -5.006876         1.463638         1.077968
 H        -5.109026        -0.362194         0.988878
 H        -4.721468         1.359622         3.830317
