19
Iteration:  2227
 C         1.258885         0.216184        -0.017677
 C        -0.103301         0.149295         0.257533
 C        -1.303711         0.117375         0.202513
 C        -2.715267        -0.086723         0.098669
 O        -3.535809         1.150744        -0.258437
 C        -3.285048        -0.628408         1.482679
 C        -4.805084        -0.501621         1.582646
 C        -5.301196         0.699123         2.338063
 O        -4.570432         1.532952         2.781718
 H         1.418167         0.801043        -0.890376
 H         1.809146         0.909864         0.713051
 H         1.897773        -0.605390        -0.218783
 H        -2.930440        -0.656126        -0.793844
 H        -3.384566         1.898769         0.325628
 H        -3.210848        -1.719672         1.361603
 H        -2.895780        -0.184732         2.401987
 H        -5.355565        -0.383443         0.613657
 H        -5.202921        -1.342210         2.150769
 H        -6.384150         0.548964         2.797552
