19
Iteration:  2310
 C         0.964242         0.311157         0.661238
 C        -0.373418         0.150977         0.045719
 C        -1.518454         0.115505        -0.348742
 C        -2.939085         0.020546        -0.125313
 O        -3.611020         1.286357        -0.067322
 C        -3.170793        -0.921970         1.335552
 C        -4.572616        -0.714171         1.942209
 C        -4.878360         0.698175         2.154431
 O        -4.326137         1.674940         2.613721
 H         1.614710         1.059775         0.135296
 H         0.897000         0.425678         1.719663
 H         1.345298        -0.723742         0.534597
 H        -3.604644        -0.415795        -0.885054
 H        -3.269405         1.834967         0.701610
 H        -2.672497        -1.865916         1.143051
 H        -2.480660        -0.524032         2.089501
 H        -5.379697        -0.938036         1.219346
 H        -4.678516        -1.366894         2.886008
 H        -5.909176         1.009076         1.878811
