19
Iteration:  1556
 C         1.486407        -0.238602        -0.400143
 C         0.096892         0.076929         0.061039
 C        -1.083471         0.143229         0.241416
 C        -2.526411         0.210076         0.286266
 O        -3.099200         1.009979        -0.835406
 C        -3.216542         0.557349         1.636181
 C        -4.764355         0.352474         1.360404
 C        -5.677141         0.072422         2.540755
 O        -5.543179         0.623255         3.637939
 H         1.590362        -1.355059        -0.705137
 H         1.971626         0.286048        -1.228161
 H         2.168730        -0.046173         0.508677
 H        -2.943353        -0.788076         0.075407
 H        -2.954560         1.866370        -0.426496
 H        -2.757324         0.011350         2.538800
 H        -3.105435         1.564124         2.142644
 H        -5.143088         1.268644         0.810109
 H        -4.953222        -0.509084         0.626113
 H        -6.395989        -0.759111         2.290374
