19
Iteration:   882
 C         1.515303        -0.334164        -0.285075
 C         0.037917        -0.066228        -0.253636
 C        -1.154646        -0.002799         0.022738
 C        -2.566526         0.113433         0.050289
 O        -2.899978         1.513593        -0.535465
 C        -3.131222         0.246097         1.546892
 C        -4.705060         0.457331         1.509511
 C        -5.325512         0.719882         2.891910
 O        -6.136353         0.049888         3.512801
 H         1.880406        -0.459511         0.755796
 H         1.731606        -1.231927        -0.807575
 H         2.020835         0.550169        -0.707396
 H        -2.993071        -0.638927        -0.587406
 H        -2.155690         1.700106        -1.134042
 H        -2.969870        -0.684569         2.024483
 H        -2.659964         1.192027         1.956027
 H        -4.990724         1.327319         0.824258
 H        -5.381026        -0.325566         1.081658
 H        -4.980116         1.697644         3.350911
