19
Iteration:  4585charge 0 multiplicity 1
 C         1.357773         0.379843         0.185321
 C        -0.108223         0.309390         0.056579
 C        -1.249550        -0.167748         0.314663
 C        -2.802408        -0.078311         0.311392
 O        -3.431308        -0.124154        -0.984427
 C        -3.367334         1.049278         1.196713
 C        -4.981642         1.055799         1.311148
 C        -5.301178         0.277778         2.591674
 O        -4.542430         0.195703         3.542272
 H         1.586346        -0.303668         1.018204
 H         1.779069         0.041385        -0.734057
 H         1.817195         1.424279         0.253659
 H        -2.991870        -1.021381         0.903956
 H        -3.284004         0.647441        -1.522843
 H        -3.006788         1.016620         2.270320
 H        -2.819291         1.981865         0.931129
 H        -5.292426         2.100874         1.612828
 H        -5.416842         0.970543         0.379305
 H        -6.356349        -0.216897         2.525265
