19
Iteration:   943
 C         1.428134        -0.348264        -0.424719
 C         0.039774         0.004147         0.022414
 C        -1.120901         0.115017         0.071117
 C        -2.509730         0.220287         0.062129
 O        -3.073581         1.305007        -0.543124
 C        -3.001178         0.237652         1.470585
 C        -4.594860         0.517867         1.585346
 C        -5.162949         0.468731         2.988449
 O        -6.325554         0.270261         3.260625
 H         2.099742        -0.666430         0.340722
 H         1.419122        -1.119217        -1.320390
 H         1.894411         0.537829        -0.871844
 H        -2.878783        -0.868430        -0.141962
 H        -2.362588         1.666477        -1.121389
 H        -2.773334        -0.729295         1.996465
 H        -2.647738         0.881424         2.264192
 H        -4.759151         1.572400         1.487011
 H        -5.168066        -0.081042         0.944050
 H        -4.424503         0.770197         3.816536
