19
Iteration:  2825charge 0 multiplicity 1
 C         1.294562         0.101588        -0.196784
 C        -0.105805        -0.143249        -0.124157
 C        -1.290663        -0.161451         0.232789
 C        -2.743283         0.006734         0.020377
 O        -2.903375         0.842024        -1.150432
 C        -3.313591         0.583887         1.323907
 C        -4.559931        -0.168128         1.859670
 C        -5.171281         0.296527         3.149390
 O        -5.635315         1.372442         3.469884
 H         1.596117         0.654698         0.669156
 H         1.831627        -0.802513        -0.176429
 H         1.696509         0.454652        -1.119449
 H        -3.126316        -0.975843        -0.212803
 H        -2.038630         0.640457        -1.544324
 H        -2.543053         0.647987         2.112111
 H        -3.570614         1.637448         1.146624
 H        -5.527132        -0.281288         1.200818
 H        -4.266119        -1.293171         2.103921
 H        -5.773304        -0.529096         3.694796
