19
Iteration:  2524
 C         1.158153         0.745742        -0.099579
 C        -0.147958         0.224731         0.239308
 C        -1.277213        -0.235794         0.211347
 C        -2.758943        -0.413248         0.102568
 O        -3.259339         0.853483        -0.421599
 C        -3.578997        -0.716054         1.385287
 C        -5.029169        -0.005862         1.377706
 C        -5.276980         0.861152         2.567628
 O        -4.358794         1.299154         3.208151
 H         1.163062         1.785569        -0.227580
 H         1.880918         0.707631         0.721691
 H         1.654155         0.341990        -0.924554
 H        -2.968632        -1.265822        -0.609076
 H        -2.500217         1.265654        -0.888322
 H        -3.638378        -1.783399         1.590050
 H        -2.865356        -0.473255         2.193205
 H        -4.706919         0.767624         0.622805
 H        -5.837458        -0.669445         0.928016
 H        -6.346722         1.116458         2.784524
