19
Iteration:  1868
 C         1.168164         0.019426         0.667650
 C        -0.262992         0.031160         0.276516
 C        -1.438938        -0.165339        -0.005055
 C        -2.837278        -0.009370        -0.149977
 O        -3.146747         1.005813        -1.276602
 C        -3.357794         0.688684         1.111543
 C        -4.787857         0.258311         1.341173
 C        -5.240018         0.530046         2.762726
 O        -4.586799         0.357704         3.780032
 H         1.750871        -0.390209        -0.128694
 H         1.469991         1.108545         0.693045
 H         1.316228        -0.577514         1.539618
 H        -3.255276        -0.969132        -0.476347
 H        -2.393703         1.662501        -1.301114
 H        -2.970833         0.303858         2.038604
 H        -3.294852         1.777937         1.085175
 H        -5.495191         0.831043         0.694966
 H        -4.963582        -0.850700         1.112149
 H        -6.336974         0.790543         2.802199
