19
Iteration:  3558
 C         1.310743         0.394928        -0.426109
 C        -0.040760         0.063021         0.145097
 C        -1.170936        -0.278053         0.271463
 C        -2.652417        -0.131082         0.261638
 O        -3.181840         0.624816        -0.857623
 C        -3.182604         0.095758         1.657789
 C        -4.683329         0.119757         1.422767
 C        -5.558844         0.641619         2.547751
 O        -5.209116         1.154539         3.599331
 H         1.220966         0.186261        -1.498478
 H         1.462745         1.480547        -0.322390
 H         2.190839        -0.109053         0.021620
 H        -3.032870        -1.149044         0.038894
 H        -2.590846         1.405937        -0.792152
 H        -2.651346        -0.688700         2.187854
 H        -2.814852         1.064138         2.046495
 H        -5.027425         0.504517         0.482325
 H        -5.122507        -0.834730         1.356555
 H        -6.650183         0.552374         2.236347
