19
Iteration:  2916charge 0 multiplicity 1
 C         1.379620        -0.036759         0.109602
 C        -0.109945         0.109401        -0.088850
 C        -1.354759         0.250558        -0.160912
 C        -2.811343         0.063412         0.081161
 O        -3.512562         0.805247        -0.855828
 C        -3.183879         0.169063         1.605352
 C        -4.485414        -0.518575         1.964020
 C        -5.286300         0.389668         2.793428
 O        -5.016032         1.574330         3.042620
 H         1.433502         0.175185         1.176806
 H         1.692445        -1.010904        -0.011038
 H         1.948345         0.697572        -0.400347
 H        -3.045651        -1.021889        -0.070711
 H        -2.874065         1.056125        -1.532705
 H        -2.351440        -0.235441         2.223908
 H        -3.217924         1.249432         1.837081
 H        -5.146233        -0.688460         0.960896
 H        -4.422784        -1.648255         2.329365
 H        -6.349812         0.021323         3.006861
