19
Iteration:  1086
 C         1.344633        -0.173196        -0.434352
 C         0.046221         0.072704         0.037544
 C        -1.158896        -0.039551         0.215371
 C        -2.540213         0.215889         0.137711
 O        -2.894535         1.304659        -0.699409
 C        -3.147894         0.203043         1.426328
 C        -4.616475         0.492724         1.601281
 C        -5.197246         0.075199         2.912655
 O        -6.185453         0.633802         3.396479
 H         1.871034        -0.786984         0.270737
 H         1.353976        -0.634639        -1.481080
 H         1.931104         0.752527        -0.530899
 H        -2.987362        -0.752090        -0.442456
 H        -2.245228         1.487954        -1.361644
 H        -2.976314        -0.803715         1.910134
 H        -2.592194         0.777486         2.151567
 H        -5.040765         1.532341         1.415954
 H        -5.246267        -0.278613         0.922314
 H        -4.586098        -0.702879         3.418657
