19
Iteration:  2534charge 0 multiplicity 1
 C         1.187636         0.775135        -0.076852
 C        -0.162793         0.161916         0.207872
 C        -1.287901        -0.261192         0.215803
 C        -2.737045        -0.468950         0.051620
 O        -3.302340         0.883339        -0.414350
 C        -3.526461        -0.684426         1.405372
 C        -4.928954        -0.049390         1.346327
 C        -5.250205         0.834862         2.515964
 O        -4.418983         1.337054         3.292268
 H         1.096492         1.814823        -0.306269
 H         1.888107         0.571819         0.785674
 H         1.477414         0.299797        -0.968348
 H        -2.932923        -1.283548        -0.701501
 H        -2.545923         1.340468        -0.798550
 H        -3.604624        -1.746428         1.570565
 H        -3.212992         0.044950         2.220198
 H        -4.828168         0.842296         0.552142
 H        -6.015295        -0.349626         1.036130
 H        -6.297016         1.002698         2.758425
