19
Iteration:  4136
 C         1.337121         0.615054        -0.565106
 C         0.073908         0.170588         0.093803
 C        -1.146383         0.095950         0.385864
 C        -2.538133        -0.084847         0.746473
 O        -3.342488        -0.460489        -0.396289
 C        -3.094950         1.145860         1.428268
 C        -4.611905         1.139244         1.281658
 C        -5.662365         0.567405         2.344520
 O        -5.341174        -0.185056         3.275076
 H         1.562737         1.504991         0.047547
 H         2.225541         0.003327        -0.594325
 H         1.113688         0.959295        -1.607638
 H        -2.703510        -0.892660         1.488084
 H        -2.703284        -0.760566        -1.051962
 H        -2.811315         1.333394         2.472801
 H        -2.645767         1.956542         0.855701
 H        -4.922517         2.150115         1.522140
 H        -4.858840         0.955096         0.180070
 H        -6.623117         1.004602         2.233885
