19
Iteration:  3135
 C         1.110193         0.757989        -0.443126
 C        -0.203234         0.172614        -0.137227
 C        -1.241460        -0.301453         0.227272
 C        -2.720960        -0.350106         0.496017
 O        -3.164312         1.119110         0.222072
 C        -3.403262        -0.916497         1.801585
 C        -4.921160        -0.626549         1.776431
 C        -5.294581         0.854162         2.064268
 O        -4.599905         1.779990         2.452537
 H         2.037800         0.304751         0.163059
 H         1.283588         0.830932        -1.524648
 H         0.996134         1.862304        -0.155795
 H        -3.133551        -0.880543        -0.356150
 H        -2.405958         1.624685        -0.075219
 H        -3.318844        -2.012991         2.006064
 H        -2.977412        -0.400097         2.679911
 H        -5.223862        -0.737758         0.777081
 H        -5.508130        -1.289991         2.364089
 H        -6.416343         1.015903         2.077910
