19
Iteration:  2942
 C         1.315519        -0.086684         0.160357
 C        -0.043672         0.326944        -0.098006
 C        -1.243183         0.313339        -0.127030
 C        -2.682107        -0.061531         0.027337
 O        -3.729939         0.704100        -0.742730
 C        -3.079506        -0.016494         1.517341
 C        -4.488898        -0.412778         1.916903
 C        -5.383474         0.530391         2.655080
 O        -4.988994         1.576812         3.104626
 H         1.371000        -0.057112         1.257573
 H         1.517849        -1.163726        -0.232604
 H         1.978026         0.661746        -0.356947
 H        -2.841873        -1.097193        -0.264598
 H        -3.321284         1.534550        -1.016096
 H        -2.403594        -0.655956         2.117806
 H        -2.723997         0.993795         1.785794
 H        -4.958823        -0.965844         1.073981
 H        -4.383424        -1.234467         2.547456
 H        -6.485884         0.161957         2.828951
