19
Iteration:   392
 C         1.420187        -0.174986        -0.533557
 C         0.095040        -0.082925        -0.049065
 C        -1.129002        -0.253727         0.167565
 C        -2.527606         0.211270         0.233120
 O        -2.790474         1.359040        -0.769117
 C        -3.141522         0.487028         1.581140
 C        -4.703892         0.541608         1.617083
 C        -5.273090         0.642465         3.012105
 O        -6.291679        -0.018461         3.365408
 H         2.158457         0.291957         0.130999
 H         1.671290        -1.250862        -0.535016
 H         1.565074         0.239323        -1.555746
 H        -3.176785        -0.483367        -0.361255
 H        -2.258770         1.277741        -1.606975
 H        -2.805908        -0.333295         2.424388
 H        -2.957820         1.456868         2.023429
 H        -4.831521         1.476220         1.151901
 H        -5.125327        -0.267193         1.121259
 H        -4.841436         1.431310         3.508833
