19
Iteration:  1754charge 0 multiplicity 1
 C         1.091968         0.169488         0.750039
 C        -0.219133         0.162878         0.245344
 C        -1.326151        -0.086606        -0.233900
 C        -2.733417        -0.088336        -0.277530
 O        -3.389331         0.888262        -1.165717
 C        -3.230995         0.061260         1.298643
 C        -4.667080         0.733448         1.349514
 C        -5.261572         0.701500         2.752856
 O        -4.678896         0.261144         3.718158
 H         1.800078        -0.584986         0.265752
 H         1.677010         1.094767         0.745495
 H         1.073123        -0.153648         1.831319
 H        -3.031305        -1.112851        -0.768574
 H        -2.824193         1.690206        -1.330337
 H        -3.251417        -0.938820         1.826589
 H        -2.468626         0.810393         1.595350
 H        -4.903249         1.733302         0.923661
 H        -5.406755         0.009630         0.883251
 H        -6.415045         0.954212         2.734393
