19
Iteration:  1368
 C         1.342955         0.008528         0.302330
 C        -0.041179         0.092920        -0.230499
 C        -1.272000        -0.146418        -0.258726
 C        -2.710459         0.134796        -0.283076
 O        -2.964190         1.486345        -0.585113
 C        -3.225687        -0.257017         1.219362
 C        -4.723023         0.060499         1.514188
 C        -5.038032         0.163521         3.007327
 O        -5.746868         1.063598         3.513808
 H         1.531632        -1.009215         0.614760
 H         2.148000         0.213218        -0.494260
 H         1.500393         0.708734         1.133914
 H        -3.276969        -0.393401        -1.086269
 H        -2.917957         1.982083         0.230410
 H        -2.881485        -1.236360         1.631819
 H        -2.618542         0.283662         1.939766
 H        -5.155976         0.973116         1.186332
 H        -5.344153        -0.726015         1.154017
 H        -4.621919        -0.497222         3.741197
