19
Iteration:  3918charge 0 multiplicity 1
 C         1.172346         0.096415         0.459134
 C        -0.229627         0.356698         0.318882
 C        -1.386859         0.478232         0.235251
 C        -2.790397         0.124661         0.440508
 O        -3.403514        -0.674796        -0.658266
 C        -3.638603         1.269296         0.750122
 C        -5.056165         1.179495         1.250755
 C        -5.046091         0.423299         2.602670
 O        -4.075284        -0.051137         3.119171
 H         1.837273         0.962702         0.211570
 H         1.396991        -0.196231         1.490274
 H         1.448456        -0.745485        -0.241843
 H        -2.888296        -0.648577         1.250044
 H        -3.525169        -0.020412        -1.395062
 H        -3.036134         1.718554         1.548158
 H        -3.586094         2.030024        -0.028444
 H        -5.358156         2.165199         1.615623
 H        -5.861681         0.743352         0.645611
 H        -6.038384         0.158316         3.010150
