19
Iteration:  1755charge 0 multiplicity 1
 C         1.087597         0.164934         0.749769
 C        -0.218239         0.166938         0.250898
 C        -1.322699        -0.087118        -0.232411
 C        -2.743226        -0.089794        -0.276317
 O        -3.381969         0.883207        -1.171785
 C        -3.235220         0.069234         1.296788
 C        -4.665874         0.733672         1.356268
 C        -5.259354         0.692510         2.753302
 O        -4.675346         0.264076         3.714976
 H         1.776748        -0.578634         0.255886
 H         1.696193         1.112947         0.767673
 H         1.082393        -0.138880         1.825605
 H        -3.043978        -1.087890        -0.803400
 H        -2.846549         1.693734        -1.326394
 H        -3.274173        -0.916676         1.803657
 H        -2.443058         0.781999         1.604755
 H        -4.909757         1.742605         0.931952
 H        -5.426373         0.002273         0.872968
 H        -6.408314         0.963211         2.762188
