19
Iteration:  3165
 C         1.092307         0.573132        -0.505455
 C        -0.276516         0.307578        -0.024397
 C        -1.263514        -0.183654         0.424744
 C        -2.697988        -0.276944         0.448604
 O        -3.106838         1.054804         0.037770
 C        -3.357033        -0.725424         1.720306
 C        -4.871643        -0.549358         1.803622
 C        -5.331636         0.789776         2.020032
 O        -4.625439         1.606807         2.549771
 H         1.787509        -0.209083        -0.131615
 H         0.974714         0.615004        -1.592758
 H         1.355124         1.607663        -0.178167
 H        -3.051501        -0.827313        -0.429250
 H        -2.985132         1.692042         0.782727
 H        -3.130346        -1.765130         1.877272
 H        -2.810088        -0.183467         2.485622
 H        -5.200744        -0.753127         0.762290
 H        -5.324972        -1.238046         2.587210
 H        -6.412077         1.037995         1.956758
