19
Iteration:  1191charge 0 multiplicity 1
 C         1.403303        -0.139794        -0.067235
 C        -0.077280        -0.036518         0.054441
 C        -1.256677         0.036920        -0.181267
 C        -2.665810         0.176750         0.005324
 O        -3.127913         1.417553        -0.598939
 C        -3.011752         0.181134         1.506141
 C        -4.567208         0.091893         1.473944
 C        -5.291341         0.006090         2.797944
 O        -5.810524         0.908586         3.431855
 H         1.803109        -0.965396         0.555940
 H         1.701814        -0.379173        -1.125271
 H         1.911318         0.765366         0.279510
 H        -3.303174        -0.486837        -0.511667
 H        -2.342916         1.985374        -0.543299
 H        -2.476255        -0.725027         1.934336
 H        -2.858448         1.180829         1.996358
 H        -4.817657         1.127102         1.049665
 H        -4.889688        -0.776512         0.863817
 H        -5.146883        -0.968554         3.278728
