19
Iteration:  3874charge 0 multiplicity 1
 C         1.217187         0.092000         0.364519
 C        -0.274694         0.191958         0.503643
 C        -1.440683         0.195667         0.453526
 C        -2.837425         0.171108         0.414404
 O        -3.382489        -0.382256        -0.763452
 C        -3.776694         1.500878         0.582165
 C        -5.045968         0.925552         1.243039
 C        -4.985954         0.401897         2.643510
 O        -3.952712         0.039462         3.201860
 H         1.720438         0.959121        -0.131960
 H         1.723358         0.072833         1.355783
 H         1.536621        -0.783516        -0.261238
 H        -3.144390        -0.518830         1.289208
 H        -2.825958        -0.369279        -1.568967
 H        -3.508072         2.322667         1.225348
 H        -4.023552         2.102447        -0.282286
 H        -5.959587         1.529762         1.093681
 H        -5.404028         0.022431         0.896450
 H        -5.993554         0.098868         3.089759
