19
Iteration:    60
 C         1.601330        -0.032734        -0.110424
 C         0.051466         0.071998         0.131728
 C        -1.165471        -0.045569         0.009785
 C        -2.685157         0.089010        -0.162759
 O        -2.965055         1.372869        -0.598690
 C        -3.383694        -0.106701         1.270985
 C        -4.780918         0.302295         1.437774
 C        -5.108580         0.729095         2.833993
 O        -5.913527         0.399853         3.667312
 H         2.177711         0.260952         0.845936
 H         1.801800        -1.125265        -0.209267
 H         2.028227         0.576278        -0.965590
 H        -3.007361        -0.750327        -0.963439
 H        -3.590287         1.507262        -1.357001
 H        -3.229915        -1.255891         1.464053
 H        -2.707124         0.119338         2.078334
 H        -5.170775         1.131355         0.722033
 H        -5.391036        -0.668968         1.263545
 H        -4.229397         1.513979         3.281642
