19
Iteration:  1817
 C         1.266880         0.204415         0.794975
 C        -0.217527        -0.094658         0.353524
 C        -1.395184        -0.094137        -0.040257
 C        -2.893274         0.068101        -0.224824
 O        -3.150250         0.846832        -1.366256
 C        -3.483718         0.355494         1.130135
 C        -5.083504         0.612507         1.301648
 C        -5.203407         0.585216         2.867605
 O        -4.355301         0.253406         3.676522
 H         2.030811        -0.325180         0.142792
 H         1.393310         1.250074         0.718813
 H         1.320685        -0.324032         1.778926
 H        -3.262214        -0.883707        -0.640764
 H        -2.739708         1.718074        -1.545593
 H        -3.326288        -0.494358         1.843971
 H        -2.957233         1.129320         1.745976
 H        -5.308204         1.631459         0.909545
 H        -5.715761        -0.075881         0.774374
 H        -6.212770         0.855812         3.273913
