19
Iteration:  3888charge 0 multiplicity 1
 C         1.234059         0.068696         0.397942
 C        -0.200157         0.321585         0.495294
 C        -1.380412         0.264221         0.418137
 C        -2.899948         0.258231         0.401789
 O        -3.454071        -0.564030        -0.748437
 C        -3.733395         1.484431         0.647504
 C        -5.091341         1.015169         1.208162
 C        -4.999717         0.412196         2.671646
 O        -3.951858        -0.031809         3.162269
 H         1.734352         0.942429        -0.087292
 H         1.662702        -0.199104         1.317955
 H         1.314845        -0.867907        -0.227356
 H        -3.179344        -0.391043         1.221755
 H        -3.029763        -0.048427        -1.459277
 H        -3.099739         2.047976         1.367071
 H        -3.868093         1.894353        -0.335456
 H        -5.931128         1.741549         1.061214
 H        -5.233746         0.119661         0.668159
 H        -5.999804         0.097045         3.144060
