19
Iteration:  2884
 C         1.360241         0.087920        -0.044004
 C        -0.066063        -0.073318         0.051204
 C        -1.282034        -0.112360         0.056584
 C        -2.788013        -0.040232        -0.025092
 O        -3.355384         0.963871        -0.840730
 C        -3.224195         0.377281         1.417061
 C        -4.518167        -0.411894         1.873874
 C        -5.282343         0.333023         2.974324
 O        -5.212922         1.533218         3.129765
 H         1.674793         0.508552         0.907577
 H         1.870497        -0.853893        -0.051684
 H         1.706240         0.844917        -0.716433
 H        -3.220391        -0.930489        -0.443877
 H        -3.347391         0.858848        -1.823056
 H        -2.306079         0.475958         2.014248
 H        -3.612667         1.371601         1.146948
 H        -5.108248        -0.635874         0.901518
 H        -4.136398        -1.342241         2.258984
 H        -5.836683        -0.394194         3.701165
