19
Iteration:  4971
 C         1.259570         0.374774         0.278392
 C        -0.172860         0.337809         0.528645
 C        -1.333833         0.195378         0.298643
 C        -2.808042        -0.049828         0.301698
 O        -3.370255        -0.497007        -0.881761
 C        -3.519591         1.299542         0.680452
 C        -4.893170         1.216360         1.336319
 C        -5.085299         0.589175         2.741255
 O        -4.462740        -0.273036         3.344441
 H         1.287794         0.275112        -0.829843
 H         1.877316         1.238944         0.573716
 H         1.708106        -0.527263         0.550657
 H        -3.135315        -0.686382         1.150798
 H        -3.345443        -1.448552        -1.017789
 H        -2.795904         1.827820         1.312022
 H        -3.554609         1.937812        -0.249654
 H        -5.337278         2.235725         1.504318
 H        -5.637310         0.735169         0.718497
 H        -6.086865         0.860778         3.077288
