19
Iteration:   827
 C         1.454903        -0.216610        -0.144141
 C        -0.090454        -0.361547         0.018651
 C        -1.308922        -0.177376         0.005614
 C        -2.720973         0.276040        -0.037028
 O        -2.865483         1.692661        -0.451314
 C        -3.221379         0.298260         1.429410
 C        -4.703592         0.308089         1.363429
 C        -5.293147         0.749183         2.704909
 O        -5.725362         0.021307         3.570504
 H         1.999564        -0.150740         0.793621
 H         1.899191        -1.070432        -0.646662
 H         1.758929         0.646640        -0.759252
 H        -3.340298        -0.262258        -0.775529
 H        -2.367544         1.642308        -1.330386
 H        -2.749828        -0.484406         1.981834
 H        -2.781709         1.247962         1.853167
 H        -4.998744         1.093090         0.642516
 H        -5.253830        -0.599620         1.335051
 H        -5.135374         1.744014         3.100141
