19
Iteration:  2975
 C         1.242701         0.037213         0.083598
 C        -0.097613         0.243009         0.063116
 C        -1.294077         0.303152        -0.202504
 C        -2.685278        -0.113189         0.019350
 O        -3.774603         0.695559        -0.628372
 C        -2.923305        -0.248712         1.585015
 C        -4.427663        -0.448742         1.855351
 C        -5.341083         0.705743         2.438800
 O        -4.981669         1.636404         3.159633
 H         1.602855        -0.002642         1.127667
 H         1.738948        -0.870260        -0.486953
 H         1.838820         0.992499        -0.138477
 H        -2.761471        -1.122669        -0.387661
 H        -4.087990         1.318327         0.037383
 H        -2.469311        -1.067071         2.178816
 H        -2.566848         0.747282         1.954190
 H        -4.850200        -0.703841         0.804005
 H        -4.653252        -1.311088         2.488616
 H        -6.392274         0.753809         1.968870
