19
Iteration:  3875
 C         1.212249         0.091761         0.368859
 C        -0.266943         0.202401         0.505184
 C        -1.432839         0.195072         0.453846
 C        -2.840556         0.177063         0.412579
 O        -3.389287        -0.396057        -0.763137
 C        -3.775805         1.500641         0.580887
 C        -5.049409         0.929895         1.243364
 C        -4.984018         0.408774         2.654432
 O        -3.952797         0.030391         3.196224
 H         1.739626         0.955300        -0.130339
 H         1.697611         0.058130         1.332808
 H         1.514048        -0.797631        -0.272517
 H        -3.107818        -0.478586         1.305817
 H        -2.844708        -0.342067        -1.573134
 H        -3.503617         2.332163         1.230290
 H        -4.002760         2.114686        -0.257918
 H        -5.941203         1.535436         1.017167
 H        -5.408319         0.047657         0.902243
 H        -5.994640         0.058114         3.064865
