19
Iteration:  1045charge 0 multiplicity 1
 C         1.492381        -0.131589        -0.379783
 C         0.060441        -0.096534        -0.199660
 C        -1.109468        -0.174061        -0.099614
 C        -2.529739         0.175530         0.140053
 O        -2.994811         1.353112        -0.494039
 C        -2.964985         0.346365         1.585199
 C        -4.650286         0.500723         1.619798
 C        -5.259952         0.164010         2.989318
 O        -6.373689         0.550797         3.310109
 H         2.089099        -0.638854         0.433301
 H         1.811001        -0.674507        -1.274573
 H         1.864053         0.925713        -0.426586
 H        -3.021812        -0.696259        -0.177055
 H        -2.564619         1.279426        -1.373057
 H        -2.800461        -0.625161         2.077379
 H        -2.564386         1.279762         2.075149
 H        -4.672474         1.634170         1.434985
 H        -5.027454        -0.036904         0.830768
 H        -4.724662        -0.564358         3.658520
