19
Iteration:  4754
 C         1.184723         0.255926         0.249818
 C        -0.213229         0.171937         0.516652
 C        -1.432106        -0.094630         0.465212
 C        -2.858197        -0.095946         0.241673
 O        -3.177900         0.123567        -1.239307
 C        -3.573254         1.211421         0.756976
 C        -5.049328         0.836513         1.349165
 C        -5.074444         0.224467         2.753043
 O        -4.273547         0.325495         3.677149
 H         1.684821        -0.702753         0.030547
 H         1.366282         0.980993        -0.695939
 H         1.872282         0.663161         0.978958
 H        -3.360701        -1.117094         0.339720
 H        -2.815240        -0.555769        -1.855673
 H        -3.227534         1.965513         1.367809
 H        -3.690162         1.719938        -0.200585
 H        -5.745912         1.677573         1.532828
 H        -5.515278         0.053495         0.765891
 H        -6.132013        -0.266891         2.929143
