19
Iteration:  1712
 C         1.193363         0.189930         0.601895
 C        -0.046892        -0.073121         0.025771
 C        -1.252697        -0.014954        -0.171051
 C        -2.690435        -0.059832        -0.165994
 O        -3.388425         1.034478        -0.916189
 C        -3.216524         0.114187         1.307834
 C        -4.708905         0.494118         1.301104
 C        -5.315498         0.806210         2.695499
 O        -4.924362         0.269500         3.745595
 H         2.022535        -0.475823         0.249398
 H         1.480346         1.272167         0.371236
 H         1.144452         0.244149         1.709721
 H        -3.051574        -0.996726        -0.667852
 H        -3.018478         1.067622        -1.809664
 H        -3.043097        -0.874005         1.803441
 H        -2.738683         0.927703         1.877586
 H        -4.721344         1.206134         0.446669
 H        -5.422414        -0.379500         0.970169
 H        -6.199709         1.405495         2.814412
