19
Iteration:  3274charge 0 multiplicity 1
 C         1.262364        -0.040438        -0.016439
 C        -0.068749         0.269709        -0.211386
 C        -1.280983         0.165358        -0.216769
 C        -2.756013         0.008831         0.168060
 O        -3.487132         1.129561        -0.261010
 C        -3.034145        -0.252850         1.717225
 C        -4.523811        -0.561074         1.889218
 C        -5.475752         0.518643         2.338705
 O        -5.014074         1.508798         2.901240
 H         1.459200        -1.053839         0.182810
 H         1.922177         0.279946        -0.774469
 H         1.579801         0.559976         0.831254
 H        -3.277029        -0.824910        -0.438038
 H        -3.024999         1.966036        -0.051310
 H        -2.441941        -1.126230         1.955304
 H        -2.615410         0.596375         2.279740
 H        -4.905927        -1.283848         1.083900
 H        -4.607021        -1.250589         2.797880
 H        -6.558534         0.420357         2.024392
