19
Iteration:   850
 C         1.335051        -0.274444        -0.193333
 C        -0.087009        -0.107859        -0.064678
 C        -1.299487        -0.193484        -0.091295
 C        -2.544320         0.260531         0.085699
 O        -2.817537         1.559225        -0.491894
 C        -3.164201         0.319139         1.514136
 C        -4.707207         0.330373         1.455467
 C        -5.256250         0.769203         2.761043
 O        -5.878083         0.021714         3.476398
 H         1.886007        -0.283184         0.795168
 H         1.662140        -1.128707        -0.721421
 H         1.814661         0.568373        -0.759303
 H        -3.234004        -0.389382        -0.516809
 H        -2.293496         1.751169        -1.269466
 H        -2.828676        -0.623040         1.886138
 H        -2.604006         1.035887         2.202680
 H        -4.966710         1.131113         0.788082
 H        -5.246000        -0.666693         1.398587
 H        -5.404661         1.812693         3.025003
