19
Iteration:  1544charge 0 multiplicity 1
 C         1.470818        -0.272135        -0.355366
 C         0.149911         0.045168         0.017235
 C        -1.049052         0.227524         0.201623
 C        -2.540645         0.264517         0.230499
 O        -3.097420         0.987473        -0.782535
 C        -3.236689         0.544283         1.658698
 C        -4.721604         0.346764         1.459496
 C        -5.649203         0.076815         2.539125
 O        -5.643244         0.617567         3.628966
 H         1.503367        -1.380343        -0.631955
 H         1.562154         0.412700        -1.223533
 H         2.293492        -0.111171         0.421637
 H        -2.711191        -0.764964        -0.059138
 H        -2.847080         1.897185        -1.006299
 H        -2.861264        -0.334917         2.188843
 H        -2.870793         1.568249         1.844750
 H        -5.092737         1.273125         0.941860
 H        -4.842585        -0.498537         0.655090
 H        -6.384273        -0.778532         2.501706
