19
Iteration:   690charge 0 multiplicity 1
 C         1.223460        -0.581075         0.368280
 C        -0.086100        -0.226045        -0.017868
 C        -1.229455         0.246892        -0.143137
 C        -2.720370         0.404156        -0.221568
 O        -3.191226         1.595692        -0.798614
 C        -3.142597         0.371806         1.282032
 C        -4.681006         0.407884         1.428896
 C        -4.971482         0.681226         2.858362
 O        -5.516287        -0.137488         3.573380
 H         1.361286        -0.311619         1.446660
 H         1.351487        -1.637106         0.279907
 H         1.978959        -0.045993        -0.210406
 H        -3.117491        -0.414799        -0.866125
 H        -3.122838         2.315729        -0.174567
 H        -2.953166        -0.662597         1.744697
 H        -2.725448         1.199727         1.829351
 H        -5.307313         1.219234         0.829001
 H        -5.236883        -0.542063         1.132286
 H        -4.635315         1.636197         3.099006
