19
Iteration:  2387
 C         1.036591         0.400786         0.635677
 C        -0.317320         0.285406         0.047873
 C        -1.484319         0.103873        -0.191170
 C        -2.917612        -0.137720        -0.109745
 O        -3.668353         1.057611        -0.439428
 C        -3.335331        -0.844776         1.395015
 C        -4.756268        -0.497646         1.795558
 C        -4.868747         0.901642         2.187780
 O        -4.131693         1.402711         3.012393
 H         1.376466         1.437122         0.387148
 H         0.805456         0.547774         1.643183
 H         1.746981        -0.352968         0.303703
 H        -3.232318        -0.811962        -0.917861
 H        -3.290668         1.816111         0.012071
 H        -3.162002        -1.894417         1.137343
 H        -2.562898        -0.564919         2.098026
 H        -5.404188        -0.768609         0.967613
 H        -5.221668        -1.149379         2.610215
 H        -5.527847         1.618581         1.617034
