19
Iteration:  2876
 C         1.389724         0.108326        -0.037941
 C        -0.037203        -0.081024         0.075395
 C        -1.264410        -0.202799         0.024478
 C        -2.793702        -0.075180        -0.002742
 O        -3.315279         1.025878        -0.866599
 C        -3.331708         0.401025         1.348094
 C        -4.459858        -0.379135         1.877842
 C        -5.249020         0.313738         2.985018
 O        -5.287227         1.532988         3.179449
 H         1.756381         0.605567         0.883246
 H         2.083152        -0.821545        -0.269461
 H         1.627037         0.744937        -0.962624
 H        -3.201588        -1.079678        -0.347935
 H        -3.335930         0.584491        -1.748761
 H        -2.497945         0.450259         2.073327
 H        -3.658939         1.462326         1.317489
 H        -5.172803        -0.444595         1.100664
 H        -4.233685        -1.359179         2.194929
 H        -5.787342        -0.320710         3.679352
