19
Iteration:  4780charge 0 multiplicity 1
 C         1.150763         0.382760         0.282880
 C        -0.269630        -0.030862         0.317890
 C        -1.487566        -0.063044         0.485920
 C        -2.943965         0.030993         0.207741
 O        -3.021649        -0.029329        -1.257091
 C        -3.635182         1.223882         0.758669
 C        -5.004844         0.924616         1.435328
 C        -5.020423         0.167564         2.729009
 O        -4.323582         0.328065         3.707994
 H         1.732051        -0.538775        -0.002759
 H         1.404303         1.147310        -0.448882
 H         1.743710         0.589151         1.254630
 H        -3.461047        -0.959047         0.522015
 H        -2.313316        -0.600136        -1.594415
 H        -3.102453         1.947481         1.486126
 H        -3.869258         1.904406        -0.094020
 H        -5.401254         1.899653         1.781645
 H        -5.750993         0.441290         0.692618
 H        -5.907448        -0.531036         2.759957
