19
Iteration:  1038
 C         1.549530        -0.117587        -0.361594
 C         0.143823        -0.189692        -0.274134
 C        -1.117311        -0.171462        -0.125620
 C        -2.517822         0.187589         0.154267
 O        -3.035904         1.342637        -0.481158
 C        -2.999859         0.378626         1.597762
 C        -4.624857         0.538761         1.655934
 C        -5.267868         0.189677         3.022747
 O        -6.403957         0.532536         3.288682
 H         2.009640        -0.554015         0.553635
 H         1.887924        -0.551549        -1.286003
 H         1.878856         0.923179        -0.458238
 H        -3.198790        -0.699647        -0.306649
 H        -2.718558         1.504310        -1.417964
 H        -2.783372        -0.517493         2.194424
 H        -2.413096         1.068889         2.259289
 H        -4.872894         1.582089         1.310465
 H        -5.105866        -0.179076         0.847084
 H        -4.679102        -0.612500         3.531010
