19
Iteration:   634
 C         1.216317        -0.514408         0.362770
 C        -0.123170        -0.135123         0.022085
 C        -1.317761         0.050570        -0.176189
 C        -2.728147         0.475590        -0.241422
 O        -2.958195         1.686474        -1.080469
 C        -3.178986         0.426821         1.254169
 C        -4.645577         0.391086         1.576023
 C        -5.002962         0.601278         3.067891
 O        -5.701420        -0.239725         3.645484
 H         1.409887        -0.204021         1.424182
 H         1.261273        -1.534517         0.286386
 H         1.966998        -0.127336        -0.345931
 H        -3.463839        -0.252178        -0.609522
 H        -2.128324         1.978169        -1.522657
 H        -2.721804        -0.416117         1.836444
 H        -2.734387         1.297735         1.614632
 H        -5.020365         1.354308         1.108112
 H        -5.197351        -0.605667         1.369659
 H        -4.480759         1.555777         3.580036
