19
Iteration:  3355charge 0 multiplicity 1
 C         1.168841        -0.138550         0.155087
 C        -0.141253         0.108817        -0.104078
 C        -1.363822         0.125007        -0.257391
 C        -2.808456         0.156521        -0.002794
 O        -3.413647         1.329817        -0.590926
 C        -3.009818         0.022861         1.530821
 C        -4.261266        -0.662777         2.102900
 C        -5.387299         0.300313         2.609473
 O        -5.163973         1.454251         2.930651
 H         1.336554        -1.253510        -0.017211
 H         1.754588         0.451043        -0.552223
 H         1.589031        -0.134691         1.159100
 H        -3.385097        -0.688908        -0.538514
 H        -2.911678         2.073812        -0.182310
 H        -2.092566        -0.441950         1.878221
 H        -3.031821         1.038119         1.917171
 H        -4.772166        -1.080262         1.239915
 H        -4.214482        -1.509793         2.946822
 H        -6.411057        -0.148076         2.456331
