19
Iteration:  3816charge 0 multiplicity 1
 C         1.260889         0.179929         0.365928
 C        -0.277388         0.231664         0.382499
 C        -1.482490         0.102316         0.375329
 C        -2.905823        -0.027878         0.343591
 O        -3.154019        -0.246485        -1.217983
 C        -3.656728         1.191903         0.892732
 C        -5.091786         0.942624         1.320321
 C        -5.138412         0.324095         2.758314
 O        -4.092843         0.399544         3.425367
 H         1.704588         0.883183        -0.332492
 H         1.705056         0.316131         1.419093
 H         1.540493        -0.833768         0.119543
 H        -3.352964        -0.955588         0.809080
 H        -2.975139        -1.192187        -1.349330
 H        -3.123503         1.665206         1.732409
 H        -3.791914         1.853987        -0.041737
 H        -5.484656         1.978518         1.414989
 H        -5.688206         0.372551         0.588595
 H        -6.056991        -0.154380         3.225481
