19
Iteration:  2378
 C         0.996452         0.445473         0.688704
 C        -0.320289         0.228527         0.051607
 C        -1.508221         0.070610        -0.265414
 C        -2.978276        -0.061257        -0.092926
 O        -3.667601         1.079905        -0.394039
 C        -3.225738        -0.832837         1.295382
 C        -4.780728        -0.630766         1.845300
 C        -4.860325         0.885079         2.194480
 O        -4.133077         1.482951         2.973039
 H         1.584959         1.289309         0.357306
 H         1.031599         0.298420         1.789590
 H         1.649576        -0.374423         0.501986
 H        -3.256614        -0.660673        -1.011341
 H        -3.216796         1.841172        -0.028051
 H        -3.347624        -1.900954         1.402290
 H        -2.518471        -0.568563         2.116149
 H        -5.495287        -0.648603         1.001573
 H        -4.964746        -1.251612         2.686881
 H        -5.522695         1.497580         1.468865
