19
Iteration:  4961charge 0 multiplicity 1
 C         1.271200         0.298455         0.327457
 C        -0.154193         0.413655         0.409128
 C        -1.355841         0.216974         0.268754
 C        -2.804045        -0.049702         0.348020
 O        -3.440540        -0.485169        -0.931665
 C        -3.490429         1.299903         0.672097
 C        -4.851496         1.214677         1.317063
 C        -5.156327         0.549371         2.795994
 O        -4.441135        -0.250984         3.378436
 H         1.616154         0.264577        -0.746189
 H         1.696179         1.213698         0.830284
 H         1.576030        -0.457741         0.971352
 H        -2.908561        -0.943525         1.022245
 H        -3.024126        -1.384205        -0.982644
 H        -2.917950         1.907951         1.380239
 H        -3.647850         1.876102        -0.315288
 H        -5.224911         2.298615         1.290989
 H        -5.438664         0.592609         0.674236
 H        -6.117220         0.780028         3.237734
