19
Iteration:   132
 C         1.339893         0.123664         0.129613
 C        -0.022673        -0.092684        -0.143820
 C        -1.201950        -0.227365        -0.300789
 C        -2.637463         0.122643        -0.188385
 O        -3.015586         1.501049        -0.334657
 C        -3.237446        -0.244453         1.310566
 C        -4.653027         0.007510         1.527884
 C        -4.947419         0.747591         2.826452
 O        -5.934777         0.606196         3.482919
 H         1.359802         0.530275         1.142815
 H         1.814245        -0.804078         0.238563
 H         1.898899         0.817884        -0.490458
 H        -3.313895        -0.360543        -0.892385
 H        -3.344423         1.560408        -1.239581
 H        -2.910733        -1.098513         1.786243
 H        -2.512174         0.529768         1.879464
 H        -4.824143         0.863072         0.941590
 H        -5.300677        -0.808728         1.246759
 H        -4.367564         1.567135         3.256865
