19
Iteration:  2597charge 0 multiplicity 1
 C         1.260157         0.512644         0.084293
 C        -0.142300         0.079048        -0.076400
 C        -1.301915        -0.256980        -0.071267
 C        -2.773994        -0.242707         0.001740
 O        -3.177006         0.888963        -0.758065
 C        -3.326256        -0.200592         1.447251
 C        -4.909876        -0.333724         1.644083
 C        -5.360712         0.853726         2.561108
 O        -4.763315         1.288625         3.531271
 H         1.447025         1.622231         0.362828
 H         1.766611         0.100222         1.029430
 H         1.964696         0.360416        -0.774849
 H        -3.325184        -1.040727        -0.474203
 H        -2.544796         1.591409        -0.643014
 H        -2.681600        -0.904080         1.940421
 H        -2.954389         0.573365         2.113981
 H        -5.423722        -0.109500         0.738165
 H        -5.078330        -1.323502         2.063365
 H        -6.466288         1.114014         2.351733
