19
Iteration:  2760
 C         1.437454        -0.218452        -0.267378
 C         0.016453        -0.065445         0.155954
 C        -1.144180         0.253040         0.300367
 C        -2.641375         0.113982         0.059669
 O        -3.189806         0.632065        -1.198742
 C        -3.382156         0.745240         1.262443
 C        -4.649457        -0.125183         1.690465
 C        -5.213408         0.196557         3.083013
 O        -5.557900         1.274510         3.550230
 H         2.160429         0.492300         0.153715
 H         1.733135        -1.219273        -0.128093
 H         1.357286        -0.106971        -1.345851
 H        -2.945845        -0.924104         0.119856
 H        -3.086765         1.621640        -1.336014
 H        -2.694964         0.854139         2.126848
 H        -3.624275         1.806287         1.185628
 H        -5.440181        -0.180163         0.882524
 H        -4.171149        -1.150219         1.803195
 H        -5.424392        -0.726807         3.673631
