19
Iteration:   608
 C         1.202953        -0.454278         0.257417
 C        -0.224525        -0.219083         0.104914
 C        -1.328182         0.096420        -0.172033
 C        -2.714646         0.407527        -0.190474
 O        -2.865999         1.588985        -0.930744
 C        -3.194645         0.591446         1.183673
 C        -4.636359         0.486607         1.538929
 C        -4.984709         0.493237         3.020400
 O        -5.744185        -0.230163         3.634087
 H         1.574481         0.013962         1.167922
 H         1.564782        -1.573738         0.173747
 H         1.652232         0.116924        -0.596684
 H        -3.412582        -0.398028        -0.528344
 H        -2.146414         1.638600        -1.577481
 H        -2.803119        -0.186722         1.774550
 H        -2.501983         1.467209         1.503400
 H        -5.190433         1.372707         1.188362
 H        -5.038249        -0.547330         1.272919
 H        -4.402490         1.274422         3.626933
