19
Iteration:  1745
 C         1.166732         0.166139         0.774655
 C        -0.198528         0.107067         0.168862
 C        -1.315654        -0.041507        -0.246093
 C        -2.747479        -0.100389        -0.261944
 O        -3.438625         0.923714        -1.086552
 C        -3.224029         0.059642         1.235163
 C        -4.654555         0.670626         1.334623
 C        -5.256307         0.745500         2.728042
 O        -4.740102         0.253959         3.742617
 H         1.819866        -0.577642         0.280845
 H         1.508283         1.258478         0.575325
 H         1.033528        -0.100081         1.835552
 H        -3.130946        -1.163347        -0.407396
 H        -2.617063         1.467234        -1.285169
 H        -2.950883        -0.775766         1.892350
 H        -2.678406         0.829588         1.844565
 H        -4.590742         1.625122         0.708435
 H        -5.415018         0.018145         0.687182
 H        -6.363935         1.026542         2.737532
