19
Iteration:    14
 C         1.515297        -0.151686        -0.074714
 C         0.023758        -0.090616        -0.099478
 C        -1.163637         0.114271         0.149875
 C        -2.694143         0.128198         0.003429
 O        -3.069535         1.318101        -0.803329
 C        -3.210740         0.174081         1.377334
 C        -4.722341         0.352926         1.436031
 C        -5.110606         0.704777         2.896458
 O        -5.970553         0.205459         3.608795
 H         1.922439         0.201239         0.951277
 H         1.891822        -1.088084        -0.290207
 H         1.893847         0.591008        -0.851195
 H        -3.071178        -0.838905        -0.564071
 H        -2.169686         1.683363        -1.072924
 H        -3.040871        -0.864959         1.747593
 H        -2.634644         0.732453         2.002099
 H        -5.151242         1.193705         0.802055
 H        -5.165365        -0.650054         1.085408
 H        -4.523853         1.628144         3.216466
