19
Iteration:  3342
 C         1.298622        -0.138846         0.125347
 C        -0.234458        -0.045042         0.049568
 C        -1.433978         0.171909        -0.287263
 C        -2.833840         0.169555        -0.040038
 O        -3.462424         1.353795        -0.591262
 C        -2.966509         0.035978         1.542373
 C        -4.307814        -0.641723         2.032561
 C        -5.337261         0.317568         2.525848
 O        -5.151823         1.439998         2.963688
 H         1.677272        -1.133689        -0.125379
 H         1.837982         0.499798        -0.507112
 H         1.453440         0.293344         1.098783
 H        -3.240532        -0.813621        -0.571957
 H        -3.187174         2.136809        -0.058630
 H        -2.153789        -0.593143         1.930893
 H        -2.829527         1.014280         2.019247
 H        -4.690372        -1.525131         1.460577
 H        -3.877145        -1.180285         2.966871
 H        -6.402484        -0.037055         2.595219
