19
Iteration:  2325
 C         0.899939         0.281341         0.664389
 C        -0.461170         0.158663         0.209113
 C        -1.518444         0.058846        -0.400143
 C        -2.999937        -0.039577        -0.091132
 O        -3.626846         1.256869        -0.095509
 C        -3.116787        -0.825649         1.199947
 C        -4.454159        -0.728342         1.874136
 C        -4.937389         0.795965         2.154858
 O        -4.251833         1.666887         2.698836
 H         1.312380         1.167771         0.173563
 H         0.899767         0.570890         1.819598
 H         1.653066        -0.496802         0.602227
 H        -3.456139        -0.599531        -0.975454
 H        -3.225955         1.760376         0.627008
 H        -3.068937        -1.936045         1.003965
 H        -2.283890        -0.477075         1.902821
 H        -5.309541        -1.256338         1.304335
 H        -4.412681        -1.109916         2.873533
 H        -5.988699         0.978764         1.830209
