19
Iteration:   698charge 0 multiplicity 1
 C         1.264102        -0.582750         0.356834
 C        -0.133028        -0.206184         0.005991
 C        -1.237432         0.223410        -0.126089
 C        -2.736876         0.414049        -0.125986
 O        -3.238032         1.617708        -0.819463
 C        -3.168675         0.315305         1.269982
 C        -4.648857         0.445319         1.383970
 C        -5.003463         0.688057         2.794805
 O        -5.488625        -0.119917         3.570384
 H         1.539259        -0.413035         1.464443
 H         1.375261        -1.638821         0.207636
 H         2.087031        -0.078854        -0.264337
 H        -3.042893        -0.320044        -0.787403
 H        -3.025159         2.287381        -0.176537
 H        -2.826141        -0.669944         1.565951
 H        -2.615055         0.955211         2.003143
 H        -5.298360         1.071305         0.745519
 H        -5.020968        -0.686321         1.303085
 H        -4.600398         1.712479         3.373079
