19
Iteration:  2062charge 0 multiplicity 1
 C         1.493568         0.014831        -0.300089
 C         0.049972         0.075600        -0.121418
 C        -1.082725        -0.088840         0.200033
 C        -2.536468        -0.075337         0.154535
 O        -3.021833         1.104813        -0.609698
 C        -3.249111         0.068681         1.530485
 C        -4.737972        -0.168513         1.517202
 C        -5.725630         0.571158         2.500801
 O        -5.498810         1.189851         3.546789
 H         1.663760         0.047223        -1.378082
 H         1.895307         1.014720         0.118708
 H         1.819718        -0.914595         0.143114
 H        -3.120357        -0.908054        -0.308607
 H        -2.452616         1.858022        -0.288006
 H        -2.772442        -0.660526         2.225795
 H        -3.137408         1.109204         1.862353
 H        -5.255424        -0.330483         0.521139
 H        -5.019515        -1.157204         2.119811
 H        -6.839385         0.232014         2.392155
