19
Iteration:  1985
 C         1.439354        -0.302561         0.001951
 C        -0.016711         0.070257         0.205685
 C        -1.215181         0.293333         0.165236
 C        -2.615335         0.147001         0.131957
 O        -3.311010         0.910574        -0.952476
 C        -3.334001         0.498649         1.464776
 C        -4.717154         0.044929         1.344867
 C        -5.410017         0.147408         2.655109
 O        -5.172100         0.971794         3.553111
 H         1.745563        -0.606479        -0.990158
 H         2.134120         0.527122         0.266258
 H         1.511576        -1.233299         0.551201
 H        -2.820036        -0.914007        -0.188325
 H        -2.923909         1.807831        -0.894259
 H        -2.700218         0.155589         2.278312
 H        -3.296039         1.589846         1.547864
 H        -5.214444         0.804156         0.741739
 H        -4.880027        -0.946828         0.892403
 H        -6.409338        -0.324233         2.728617
