19
Iteration:   116charge 0 multiplicity 1
 C         1.380125         0.130343         0.147659
 C        -0.051921        -0.138189        -0.173869
 C        -1.274977        -0.157008        -0.204942
 C        -2.703235         0.066847        -0.070836
 O        -3.003648         1.497829        -0.360086
 C        -3.141134        -0.229125         1.306035
 C        -4.661687         0.163951         1.450783
 C        -4.931694         0.785009         2.804914
 O        -5.921974         0.529357         3.465476
 H         1.454661         0.632923         1.128927
 H         2.054717        -0.827021         0.099552
 H         1.758902         0.796483        -0.652651
 H        -3.171722        -0.643071        -0.850774
 H        -3.736506         1.481659        -0.967679
 H        -2.931142        -1.372762         1.471657
 H        -2.578750         0.232958         2.110392
 H        -5.032799         0.852344         0.584731
 H        -5.360311        -0.704161         1.438718
 H        -4.059274         1.414594         3.017079
