19
Iteration:  2748
 C         1.360979        -0.313344        -0.277444
 C         0.012035         0.039142         0.156059
 C        -1.178366         0.360455         0.219425
 C        -2.638476         0.171410         0.100392
 O        -3.220519         0.593447        -1.174503
 C        -3.367732         0.695741         1.368261
 C        -4.569798        -0.163268         1.693754
 C        -5.286684         0.185120         3.018159
 O        -5.482596         1.285832         3.526183
 H         1.922101         0.368334         0.361547
 H         1.708479        -1.181052         0.168244
 H         1.803389        -0.183824        -1.240956
 H        -2.753035        -0.883968        -0.137911
 H        -2.982696         1.511923        -1.359108
 H        -2.612444         0.608657         2.160105
 H        -3.737868         1.664568         1.042981
 H        -5.293207         0.111566         0.829216
 H        -4.522333        -1.333206         1.663368
 H        -5.288083        -0.682753         3.715557
