19
Iteration:  2560
 C         1.154859         0.687734        -0.027465
 C        -0.163047         0.094533         0.085657
 C        -1.325400        -0.293927         0.149377
 C        -2.750377        -0.353402         0.027377
 O        -3.239564         0.876267        -0.541373
 C        -3.344187        -0.490119         1.413813
 C        -4.850175        -0.088157         1.444714
 C        -5.332810         0.870135         2.547160
 O        -4.576361         1.313192         3.390721
 H         0.901012         1.759483        -0.018873
 H         1.651343         0.363548         0.863014
 H         1.739254         0.396330        -0.935537
 H        -3.018294        -1.267173        -0.577558
 H        -2.438888         1.379375        -0.743735
 H        -3.382726        -1.605048         1.404127
 H        -2.892802         0.079027         2.236639
 H        -5.107905         0.322924         0.471415
 H        -5.611268        -0.804187         1.519277
 H        -6.440126         0.987874         2.686733
