19
Iteration:   720
 C         1.245703        -0.593902         0.251816
 C        -0.058461        -0.135604         0.152021
 C        -1.220115         0.209539        -0.150255
 C        -2.710680         0.441407        -0.181604
 O        -3.247698         1.626471        -0.756485
 C        -3.154664         0.166079         1.355717
 C        -4.714579         0.346505         1.378410
 C        -5.054712         0.728213         2.766834
 O        -5.454837        -0.073528         3.574588
 H         1.647334        -0.463053         1.327240
 H         1.336550        -1.627373         0.006457
 H         1.945404         0.038069        -0.398217
 H        -3.072137        -0.261952        -0.867705
 H        -2.600356         2.381533        -0.647189
 H        -2.842861        -0.810267         1.732404
 H        -2.783747         0.890491         2.107742
 H        -5.033543         1.278772         0.935435
 H        -5.487166        -0.417863         1.011116
 H        -4.880747         1.943864         3.000819
