19
Iteration:  1930charge 0 multiplicity 1
 C         1.324532        -0.230955         0.414890
 C        -0.068272        -0.027080         0.044996
 C        -1.241521         0.229349         0.051514
 C        -2.616344         0.199900        -0.138658
 O        -3.187680         0.926066        -1.248879
 C        -3.391431         0.604781         1.157645
 C        -4.761602         0.049736         1.410228
 C        -5.497582         0.346558         2.873069
 O        -4.994074         0.679779         3.926482
 H         1.927365        -0.593099        -0.405122
 H         1.815868         0.705449         0.758907
 H         1.537504        -0.906175         1.263772
 H        -2.961860        -0.836840        -0.312428
 H        -2.722079         1.796912        -1.391509
 H        -2.611484         0.426048         1.891597
 H        -3.284355         1.686981         1.117846
 H        -5.285548         0.729454         0.760578
 H        -4.932894        -0.921317         0.985992
 H        -6.552858        -0.094715         2.899950
