19
Iteration:  1726
 C         1.203646         0.210845         0.697144
 C        -0.103610        -0.040659         0.070226
 C        -1.317481         0.006188        -0.225010
 C        -2.769229        -0.056690        -0.220324
 O        -3.415103         0.954102        -0.942269
 C        -3.203244         0.092933         1.303500
 C        -4.689753         0.550208         1.318234
 C        -5.249950         0.718911         2.657889
 O        -4.861226         0.287324         3.738896
 H         1.984910        -0.442098         0.445892
 H         1.638098         1.246189         0.501005
 H         1.070350        -0.015275         1.730870
 H        -3.042789        -1.011688        -0.572327
 H        -2.835793         1.340556        -1.654376
 H        -3.142359        -0.811793         1.856887
 H        -2.497403         0.848113         1.561428
 H        -5.037493         1.545902         1.089366
 H        -5.219444        -0.174221         0.711956
 H        -5.948101         1.564175         2.536077
