19
Iteration:  3035charge 0 multiplicity 1
 C         1.285549         0.470583        -0.052712
 C        -0.148150         0.215418        -0.105338
 C        -1.335609        -0.110756         0.051963
 C        -2.851668        -0.276450         0.187411
 O        -3.437451         0.958681        -0.317577
 C        -3.259466        -0.420068         1.630544
 C        -4.728034        -0.648899         1.999004
 C        -5.275662         0.805959         2.188827
 O        -4.699884         1.630222         2.884328
 H         1.783432         0.146218         0.952745
 H         1.839093        -0.018620        -0.867275
 H         1.437775         1.562970        -0.246348
 H        -3.210935        -0.949174        -0.612871
 H        -2.864202         1.359112        -1.014338
 H        -2.710735        -1.334665         1.917527
 H        -2.904036         0.369183         2.287743
 H        -5.291374        -1.193337         1.313990
 H        -4.897145        -1.118804         2.941993
 H        -6.232567         1.108052         1.631035
