19
Iteration:   704charge 0 multiplicity 1
 C         1.306487        -0.592012         0.345713
 C        -0.121917        -0.180775         0.050994
 C        -1.300080         0.215537        -0.123378
 C        -2.682957         0.456053        -0.089426
 O        -3.270910         1.632696        -0.821723
 C        -3.199524         0.254202         1.276620
 C        -4.672522         0.417222         1.366470
 C        -5.019087         0.721070         2.801811
 O        -5.466756        -0.102601         3.560912
 H         1.584894        -0.455937         1.351553
 H         1.467727        -1.699695         0.084655
 H         2.015033        -0.127551        -0.303157
 H        -3.223238        -0.457709        -0.625771
 H        -2.930601         2.419286        -0.301431
 H        -2.744018        -0.760576         1.522560
 H        -2.489761         0.778791         1.950079
 H        -5.027802         1.090576         0.521799
 H        -4.884360        -0.600937         1.280652
 H        -4.718232         1.590760         3.314089
