19
Iteration:   410charge 0 multiplicity 1
 C         1.479177        -0.253544        -0.539093
 C         0.104623        -0.115886        -0.024655
 C        -1.134390        -0.063369         0.101989
 C        -2.584394         0.153377         0.177078
 O        -2.806147         1.267451        -0.708348
 C        -3.133867         0.550104         1.612040
 C        -4.698916         0.640006         1.626776
 C        -5.365079         0.684796         2.964658
 O        -6.229966        -0.096040         3.368239
 H         2.209185         0.266946         0.037618
 H         1.776695        -1.348009        -0.645076
 H         1.450899         0.238154        -1.487120
 H        -3.148346        -0.781081        -0.168129
 H        -1.943058         1.509643        -1.132894
 H        -2.879619        -0.280132         2.207497
 H        -2.666848         1.567160         1.805339
 H        -5.190620         1.572752         1.122780
 H        -5.103099        -0.263263         0.954408
 H        -4.969293         1.363614         3.903806
