19
Iteration:   996charge 0 multiplicity 1
 C         1.449776        -0.183493        -0.354992
 C         0.033056        -0.161488        -0.313778
 C        -1.139912         0.014591        -0.061353
 C        -2.444253         0.211497         0.136953
 O        -3.067274         1.313703        -0.505592
 C        -2.971652         0.315506         1.598048
 C        -4.487205         0.518443         1.733593
 C        -5.246885         0.241663         3.032048
 O        -6.433011         0.460732         3.174854
 H         1.864413        -0.594583         0.558005
 H         1.884197        -0.892388        -1.120447
 H         1.927687         0.785049        -0.481583
 H        -2.790353        -0.792474        -0.137440
 H        -2.630858         1.391293        -1.380568
 H        -2.802280        -0.683295         2.072058
 H        -2.556392         1.124373         2.206922
 H        -4.686504         1.566967         1.616711
 H        -4.921801        -0.129912         0.883586
 H        -4.649412         0.110363         3.999081
