19
Iteration:  2019charge 0 multiplicity 1
 C         1.491775        -0.165596        -0.207279
 C         0.067747        -0.039599         0.088713
 C        -1.113731         0.221519         0.160727
 C        -2.605922         0.159998         0.227999
 O        -3.210669         0.974666        -0.874440
 C        -3.310434         0.297714         1.590200
 C        -4.732206        -0.088818         1.395650
 C        -5.658300         0.312868         2.637126
 O        -5.300460         1.091057         3.531492
 H         1.694240        -0.331870        -1.234233
 H         2.142252         0.612842         0.299839
 H         1.738182        -1.035860         0.385081
 H        -2.594242        -0.789015        -0.281711
 H        -2.893003         1.910150        -0.811676
 H        -2.854739        -0.378417         2.310909
 H        -3.181148         1.333426         1.914279
 H        -5.190531         0.333160         0.504789
 H        -4.715892        -1.165309         1.199310
 H        -6.648126        -0.145550         2.662447
