19
Iteration:    61
 C         1.597188        -0.023961        -0.108056
 C         0.050716         0.073534         0.131773
 C        -1.163225        -0.058345         0.010380
 C        -2.687155         0.096543        -0.172055
 O        -2.968349         1.373113        -0.594328
 C        -3.379395        -0.112659         1.266034
 C        -4.776798         0.298219         1.439057
 C        -5.108235         0.736286         2.831133
 O        -5.916233         0.400530         3.667561
 H         2.150655         0.261376         0.831732
 H         1.793045        -1.163869        -0.200991
 H         2.014694         0.576235        -0.951528
 H        -2.999733        -0.753419        -0.978349
 H        -3.609766         1.519788        -1.308702
 H        -3.215452        -1.256823         1.488734
 H        -2.676860         0.083566         2.140766
 H        -5.149823         1.126103         0.713411
 H        -5.383140        -0.646874         1.260701
 H        -4.195597         1.521547         3.243990
