19
Iteration:   993charge 0 multiplicity 1
 C         1.437980        -0.202374        -0.367978
 C         0.053226        -0.121819        -0.287662
 C        -1.158019         0.007012        -0.058293
 C        -2.469588         0.223550         0.149045
 O        -3.063564         1.312058        -0.513261
 C        -2.973141         0.314050         1.587208
 C        -4.493137         0.511596         1.750184
 C        -5.234086         0.239882         3.027002
 O        -6.427317         0.456235         3.163095
 H         1.840057        -0.619536         0.608890
 H         1.788064        -0.857142        -1.117157
 H         1.984101         0.747827        -0.527966
 H        -2.809135        -0.882275        -0.206270
 H        -2.590270         1.362831        -1.392574
 H        -2.841818        -0.626069         2.105571
 H        -2.487393         1.056483         2.301464
 H        -4.615088         1.612186         1.539303
 H        -4.861091        -0.150431         0.882841
 H        -4.564214         0.158125         3.985195
