19
Iteration:  3373charge 0 multiplicity 1
 C         1.266404        -0.233243         0.107697
 C        -0.155031         0.333896        -0.287112
 C        -1.389226         0.061366        -0.185554
 C        -2.785998         0.133754         0.051556
 O        -3.389874         1.306309        -0.547442
 C        -3.048098         0.053860         1.634761
 C        -4.363285        -0.636514         1.983016
 C        -5.340925         0.268338         2.672411
 O        -5.212426         1.464812         2.891012
 H         1.320052        -1.315579         0.028584
 H         2.200706         0.225851        -0.167741
 H         1.252921        -0.165127         1.221044
 H        -3.237695        -0.775885        -0.433295
 H        -2.600218         1.888106        -0.516107
 H        -2.157476        -0.449019         2.067416
 H        -3.011966         1.114885         1.959935
 H        -4.914642        -1.144059         1.127284
 H        -4.164019        -1.428972         2.660016
 H        -6.278664        -0.264301         2.981288
