19
Iteration:   138charge 0 multiplicity 1
 C         1.381109         0.122493         0.171194
 C        -0.037013        -0.065096        -0.151982
 C        -1.236149        -0.220210        -0.336935
 C        -2.684477         0.093103        -0.226654
 O        -2.997903         1.503183        -0.329981
 C        -3.161756        -0.210527         1.302960
 C        -4.684334        -0.018479         1.568957
 C        -4.961042         0.733869         2.849857
 O        -5.978605         0.619911         3.504853
 H         1.419174         0.572067         1.179410
 H         1.921195        -0.932991         0.156870
 H         1.876142         0.769104        -0.579097
 H        -3.206939        -0.483695        -1.075090
 H        -3.056538         1.670114        -1.312761
 H        -2.653586        -1.154727         1.788359
 H        -2.652893         0.448670         1.964908
 H        -4.924820         0.911968         0.867000
 H        -5.415738        -0.795265         1.273418
 H        -4.110751         1.560773         2.995278
