19
Iteration:  3245
 C         1.300864         0.109938        -0.226370
 C        -0.071577         0.338589        -0.194806
 C        -1.265090         0.181329         0.093560
 C        -2.721366        -0.111271         0.278370
 O        -3.489489         1.068548        -0.125667
 C        -3.165830        -0.474746         1.730401
 C        -4.648565        -0.619945         1.764271
 C        -5.317724         0.603114         2.285849
 O        -4.985975         1.648183         2.822701
 H         1.427828        -1.045303         0.025590
 H         1.844535         0.224076        -1.198238
 H         1.838811         0.716004         0.572540
 H        -3.100728        -0.843400        -0.429316
 H        -3.007260         1.892925        -0.326927
 H        -2.677127        -1.434677         1.988056
 H        -2.718527         0.293381         2.344501
 H        -5.085362        -0.981465         0.873893
 H        -4.918267        -1.381307         2.540447
 H        -6.336800         0.566230         1.852581
