19
Iteration:  1078charge 0 multiplicity 1
 C         1.375667        -0.180320        -0.439102
 C        -0.026614         0.098149         0.020025
 C        -1.183661        -0.023134         0.186734
 C        -2.591379         0.135297         0.082585
 O        -2.858043         1.323698        -0.651279
 C        -3.137406         0.216634         1.511694
 C        -4.576309         0.528132         1.608148
 C        -5.163218         0.106101         2.947214
 O        -6.192910         0.601329         3.330320
 H         1.937542        -0.841678         0.302977
 H         1.319852        -0.656369        -1.418076
 H         1.924080         0.798661        -0.548283
 H        -2.998125        -0.744248        -0.315938
 H        -2.272154         1.290594        -1.395155
 H        -2.802443        -0.811396         1.828433
 H        -2.474288         0.947580         2.069519
 H        -5.197777         1.487354         1.257909
 H        -5.178459        -0.175426         1.081671
 H        -4.843388        -0.896160         3.449012
