19
Iteration:  4587
 C         1.362490         0.361264         0.210035
 C        -0.098059         0.316813         0.051510
 C        -1.258140        -0.154722         0.294244
 C        -2.789092        -0.056381         0.289428
 O        -3.433317        -0.132759        -0.977676
 C        -3.372811         1.048559         1.192716
 C        -4.975003         1.054994         1.324394
 C        -5.318484         0.268866         2.610390
 O        -4.544127         0.203722         3.543532
 H         1.609336        -0.289183         1.053504
 H         1.787233         0.083455        -0.780975
 H         1.770332         1.378261         0.268082
 H        -2.964881        -0.996458         0.857800
 H        -3.286893         0.596324        -1.613180
 H        -2.899465         0.986617         2.200989
 H        -2.810675         1.941763         0.926352
 H        -5.261832         2.100700         1.613145
 H        -5.537383         0.951499         0.371397
 H        -6.373176        -0.261876         2.551223
