19
Iteration:  4955
 C         1.309573         0.270901         0.374492
 C        -0.198812         0.448262         0.300137
 C        -1.379509         0.217521         0.251670
 C        -2.801180        -0.017617         0.373840
 O        -3.469000        -0.487974        -0.962334
 C        -3.461016         1.286667         0.704102
 C        -4.858039         1.194948         1.352627
 C        -5.182052         0.519232         2.778515
 O        -4.421592        -0.222951         3.392999
 H         1.951456         0.198059        -0.503558
 H         1.649934         1.183410         0.871412
 H         1.605429        -0.523094         1.175240
 H        -2.760642        -0.824741         1.115072
 H        -2.932946        -1.254223        -1.153645
 H        -2.793045         1.930351         1.303823
 H        -3.576250         1.709285        -0.273316
 H        -5.348315         2.144176         1.184382
 H        -5.523988         0.566844         0.663637
 H        -6.164681         0.896639         3.272868
