19
Iteration:  3014charge 0 multiplicity 1
 C         1.329386         0.334231        -0.011285
 C        -0.147131         0.133237        -0.045933
 C        -1.335826         0.029766         0.034860
 C        -2.750543        -0.178559         0.114645
 O        -3.689944         0.852509        -0.485111
 C        -3.111756        -0.359060         1.647428
 C        -4.614784        -0.534779         1.892929
 C        -5.268876         0.781313         2.243264
 O        -4.784760         1.600070         3.013179
 H         1.465322         0.062433         1.052075
 H         1.938404        -0.231412        -0.650717
 H         1.513607         1.377275        -0.203926
 H        -3.020472        -1.066429        -0.521175
 H        -3.204709         1.699597        -0.357707
 H        -2.396731        -1.072407         2.066793
 H        -2.869567         0.562411         2.193816
 H        -5.165609        -1.116493         1.143561
 H        -4.627228        -1.194602         2.796376
 H        -6.255935         1.044406         1.682642
