19
Iteration:  2479charge 0 multiplicity 1
 C         1.170956         0.692586         0.028171
 C        -0.217064         0.228525         0.142256
 C        -1.362171        -0.064877         0.498939
 C        -2.767246        -0.303602         0.009436
 O        -3.305480         0.869389        -0.548793
 C        -3.651114        -0.793339         1.231800
 C        -5.064335        -0.234704         1.402602
 C        -5.153946         0.918069         2.585439
 O        -4.179487         1.319185         3.203631
 H         1.307556         1.693748        -0.243300
 H         1.769419         0.726569         0.971562
 H         1.719086         0.197077        -0.709272
 H        -2.697380        -1.215531        -0.635057
 H        -2.509127         1.269735        -0.995890
 H        -3.619028        -1.870885         1.421066
 H        -3.233507        -0.444338         2.227034
 H        -5.546718         0.348631         0.577553
 H        -5.833600        -0.918924         1.765397
 H        -6.041542         1.651098         2.539463
