19
Iteration:  2014charge 0 multiplicity 1
 C         1.486048        -0.187575        -0.169589
 C         0.026619        -0.036513         0.113092
 C        -1.142385         0.252243         0.202416
 C        -2.559392         0.147252         0.194318
 O        -3.242992         0.962155        -0.864370
 C        -3.257049         0.353397         1.567483
 C        -4.759056        -0.038136         1.360827
 C        -5.640761         0.282615         2.671472
 O        -5.280523         1.061583         3.505516
 H         1.734979        -0.327932        -1.283431
 H         2.009746         0.673308         0.186555
 H         1.647939        -1.172573         0.373944
 H        -2.598834        -0.871421        -0.313495
 H        -2.891746         1.849742        -0.805879
 H        -2.701414        -0.408407         2.182375
 H        -3.079033         1.416016         1.828473
 H        -5.213288         0.327126         0.389442
 H        -4.700730        -1.176487         1.284062
 H        -6.693925        -0.195448         2.800815
