19
Iteration:   279charge 0 multiplicity 1
 C         1.423234        -0.270505        -0.152474
 C         0.038383         0.171606        -0.191876
 C        -1.160211         0.223961        -0.076350
 C        -2.581584         0.136077        -0.006555
 O        -3.149274         1.333732        -0.540626
 C        -3.063080        -0.065098         1.538643
 C        -4.586488         0.160481         1.644628
 C        -5.072274         0.692649         2.879540
 O        -6.203995         0.467411         3.321316
 H         1.950549         0.086653         0.695282
 H         1.496892        -1.396836        -0.188733
 H         1.928612         0.026490        -1.042006
 H        -2.993007        -0.805704        -0.416049
 H        -2.411294         1.863106        -0.941564
 H        -2.627086        -1.133689         1.778349
 H        -2.259594         0.404824         2.209961
 H        -4.912413         0.834418         0.905278
 H        -5.105489        -0.827951         1.533154
 H        -4.439112         1.308459         3.522150
