19
Iteration:   511
 C         1.401034        -0.543835        -0.150618
 C         0.083865        -0.051812        -0.029878
 C        -1.149325         0.091482         0.031714
 C        -2.606286         0.332132         0.050196
 O        -3.181431         1.356930        -0.831867
 C        -3.069899         0.581426         1.568175
 C        -4.629307         0.757902         1.598066
 C        -5.311162         0.664445         2.928300
 O        -5.911188        -0.302490         3.365646
 H         2.049083        -0.159307         0.587774
 H         1.442111        -1.646608        -0.218315
 H         1.753363        -0.086924        -1.073267
 H        -2.891593        -0.724828        -0.189461
 H        -2.463682         1.538226        -1.480524
 H        -2.845480        -0.343095         1.986384
 H        -2.327940         1.287675         2.064743
 H        -4.866707         1.766325         1.170901
 H        -4.889345        -0.281127         1.163512
 H        -5.143857         1.536948         3.668850
