19
Iteration:  3954
 C         1.270992         0.285492         0.482396
 C        -0.107992         0.334928         0.047039
 C        -1.360477         0.191202         0.084530
 C        -2.761291         0.149868         0.439936
 O        -3.449472        -0.782210        -0.676214
 C        -3.523851         1.449767         0.857878
 C        -4.966945         1.258677         1.380373
 C        -5.178689         0.395934         2.556331
 O        -4.338806        -0.125063         3.269587
 H         1.767882         1.296298         0.461790
 H         1.327184        -0.142755         1.472429
 H         1.878740        -0.431705        -0.147397
 H        -2.803639        -0.445805         1.344953
 H        -3.248588        -0.561434        -1.614539
 H        -2.996785         1.795234         1.800788
 H        -3.505021         2.217797         0.078460
 H        -5.358745         2.238121         1.726623
 H        -5.618032         1.097570         0.609307
 H        -6.278279         0.340892         2.759502
