19
Iteration:  3979charge 0 multiplicity 1
 C         1.303892         0.450858         0.337419
 C        -0.139151         0.228894         0.157997
 C        -1.334450         0.193912         0.143103
 C        -2.757619        -0.004595         0.466141
 O        -3.593647        -0.573537        -0.629028
 C        -3.344313         1.388045         0.784316
 C        -4.797391         1.236569         1.285589
 C        -5.204701         0.419059         2.587131
 O        -4.509684        -0.198205         3.368460
 H         1.572589         1.489527         0.350557
 H         1.560444        -0.035925         1.326052
 H         1.907919        -0.100499        -0.347570
 H        -2.832945        -0.563775         1.380751
 H        -3.185321        -0.969779        -1.417989
 H        -2.734203         1.747470         1.639218
 H        -3.375127         2.076799        -0.107198
 H        -5.270690         2.224412         1.451613
 H        -5.394749         0.936318         0.417384
 H        -6.306736         0.272989         2.514806
