19
Iteration:  4402
 C         1.422786         0.318325        -0.296297
 C        -0.036597         0.087119        -0.135283
 C        -1.200452         0.302480         0.253134
 C        -2.637653         0.173008         0.860092
 O        -3.593119        -0.397758        -0.076703
 C        -3.186207         1.486157         1.249106
 C        -4.751845         1.308296         1.430556
 C        -5.419222         0.394063         2.281505
 O        -4.908974        -0.541898         2.882979
 H         1.721211         0.524269         0.723634
 H         1.997936        -0.449706        -0.850384
 H         1.605009         1.301484        -0.763620
 H        -2.586045        -0.435980         1.771692
 H        -3.265282        -1.098316        -0.672483
 H        -2.854234         1.861699         2.224715
 H        -3.000731         2.238921         0.490146
 H        -5.101577         2.245042         1.805548
 H        -5.236424         1.171586         0.398158
 H        -6.544517         0.516590         2.435813
