19
Iteration:  1238
 C         1.449947        -0.166056         0.143224
 C         0.009736        -0.034561        -0.116989
 C        -1.167804         0.185394        -0.002594
 C        -2.693947         0.226106        -0.137410
 O        -3.138665         1.543183        -0.535510
 C        -3.302862        -0.129922         1.289827
 C        -4.808430        -0.068179         1.422111
 C        -5.011845         0.106364         2.968370
 O        -5.695017         1.011054         3.436786
 H         1.718241        -0.989852         0.761117
 H         2.028039        -0.274285        -0.818813
 H         1.837406         0.703086         0.663533
 H        -3.097533        -0.388244        -0.979392
 H        -3.095401         1.615087        -1.494627
 H        -2.766086        -1.098100         1.513194
 H        -2.963949         0.810710         1.777025
 H        -5.179467         0.795583         0.882197
 H        -5.288146        -1.060020         0.964410
 H        -4.578327        -0.626080         3.695506
