19
Iteration:  1841charge 0 multiplicity 1
 C         1.153600         0.126304         0.732899
 C        -0.257563        -0.037896         0.314838
 C        -1.431614        -0.138303         0.007833
 C        -2.815681        -0.006813        -0.171648
 O        -3.135024         0.938953        -1.298715
 C        -3.405239         0.537373         1.125481
 C        -4.978197         0.414751         1.370120
 C        -5.262874         0.612094         2.810834
 O        -4.395097         0.272091         3.599511
 H         1.854119        -0.347719        -0.015164
 H         1.337915         1.167675         0.701230
 H         1.318503        -0.409786         1.704292
 H        -3.172890        -0.966633        -0.597795
 H        -2.518962         1.712482        -1.333344
 H        -3.077255        -0.012992         2.050259
 H        -3.042144         1.545053         1.418485
 H        -5.608363         1.171828         0.876497
 H        -5.364163        -0.550224         1.084906
 H        -6.259060         0.955323         3.172933
