19
Iteration:  4719
 C         1.247912         0.168126         0.355505
 C        -0.239457         0.142507         0.384336
 C        -1.438831         0.262133         0.306597
 C        -2.855789         0.053963         0.165532
 O        -3.224483         0.022480        -1.230461
 C        -3.576915         1.095988         1.074934
 C        -5.095541         0.702895         1.297614
 C        -5.161395         0.346623         2.762484
 O        -4.195872         0.325146         3.498307
 H         1.633481        -0.868784         0.353940
 H         1.541096         0.586294        -0.679004
 H         1.691867         0.732981         1.150968
 H        -3.021983        -0.909661         0.730751
 H        -2.854170        -0.822237        -1.575763
 H        -2.975991         0.827134         1.923109
 H        -3.299979         2.076771         0.714162
 H        -5.900009         1.431513         1.017741
 H        -5.442366        -0.224046         0.901118
 H        -6.187530         0.069807         3.181722
