19
Iteration:  2414charge 0 multiplicity 1
 C         1.153240         0.482954         0.450798
 C        -0.327969         0.328480         0.143147
 C        -1.500507         0.046476         0.077774
 C        -2.891777        -0.234720        -0.088100
 O        -3.653411         0.876439        -0.416814
 C        -3.395105        -0.781902         1.294909
 C        -4.826316        -0.327222         1.545825
 C        -4.913389         0.966269         2.271785
 O        -4.121049         1.330717         3.128220
 H         1.437282         1.467543         0.143768
 H         1.189392         0.540530         1.566496
 H         1.699469        -0.266442        -0.130303
 H        -3.028034        -0.891289        -1.006016
 H        -3.285113         1.731532        -0.186547
 H        -3.150021        -1.868232         1.275664
 H        -2.688448        -0.243546         1.970768
 H        -5.506694        -0.546743         0.693613
 H        -5.241767        -1.008586         2.216693
 H        -5.604031         1.778499         1.889556
