19
Iteration:  1530
 C         1.508853        -0.306501        -0.366661
 C         0.115591         0.004056         0.031615
 C        -1.065789         0.369298         0.190009
 C        -2.490193         0.221555         0.248741
 O        -3.166423         1.048954        -0.827825
 C        -3.140170         0.478154         1.597108
 C        -4.686612         0.359395         1.419820
 C        -5.634354         0.022136         2.651474
 O        -5.750630         0.650660         3.665207
 H         1.600777        -1.314104        -0.632550
 H         1.841748         0.246644        -1.277503
 H         2.205586        -0.041295         0.382337
 H        -2.750606        -0.757878        -0.056798
 H        -2.333120         1.450824        -1.128195
 H        -2.802306        -0.248199         2.265769
 H        -2.935740         1.373668         2.108834
 H        -5.168152         1.221819         0.980636
 H        -4.927638        -0.470629         0.694024
 H        -6.371641        -0.668229         2.192247
