19
Iteration:   267
 C         1.434545        -0.270152        -0.141042
 C         0.041235         0.171348        -0.163604
 C        -1.142125         0.160214        -0.023409
 C        -2.605167         0.204637         0.072372
 O        -3.264473         1.350923        -0.581921
 C        -2.964929        -0.136222         1.477523
 C        -4.532568         0.103932         1.540565
 C        -5.072265         0.706255         2.929047
 O        -6.175825         0.518213         3.344760
 H         1.935876         0.064718         0.754177
 H         1.375917        -1.343953        -0.081505
 H         2.019500         0.045706        -0.971960
 H        -2.908896        -0.560182        -0.684590
 H        -2.546514         1.937276        -0.806609
 H        -2.924682        -1.217345         1.662190
 H        -2.623051         0.633248         2.260003
 H        -4.881129         0.683594         0.736333
 H        -5.107919        -0.875124         1.384610
 H        -4.245059         1.213278         3.420494
