19
Iteration:  4908
 C         1.179074         0.330612         0.651580
 C        -0.120249         0.082332         0.064689
 C        -1.328517         0.296298        -0.090046
 C        -2.805037         0.034505         0.287868
 O        -3.482705        -0.433793        -0.846794
 C        -3.405678         1.310157         1.018372
 C        -5.029680         0.958582         1.321263
 C        -5.197669         0.403083         2.664058
 O        -4.242606         0.076759         3.362535
 H         1.881861        -0.134425        -0.083619
 H         1.576596         1.363306         0.882992
 H         1.221654        -0.201376         1.604893
 H        -2.786060        -0.862776         0.916320
 H        -3.011170         0.001617        -1.596102
 H        -2.911647         1.481416         1.971780
 H        -3.499034         2.205473         0.337924
 H        -5.708074         1.871518         1.294445
 H        -5.386283         0.358985         0.457788
 H        -6.265277         0.335330         3.111972
