19
Iteration:   493charge 0 multiplicity 1
 C         1.460016        -0.522313        -0.275661
 C         0.066652        -0.049030         0.027500
 C        -1.129686         0.172399         0.013734
 C        -2.620382         0.237453         0.130747
 O        -3.181588         1.260597        -0.709153
 C        -3.059081         0.543694         1.524127
 C        -4.606367         0.767633         1.543273
 C        -5.312599         0.696801         2.959263
 O        -5.941731        -0.285382         3.306516
 H         2.196840        -0.288271         0.560327
 H         1.381711        -1.569937        -0.277598
 H         1.886448        -0.252990        -1.272701
 H        -3.068017        -0.714122        -0.322036
 H        -2.504745         1.938964        -0.945897
 H        -2.540498        -0.136661         2.350313
 H        -2.840921         1.487186         1.925371
 H        -4.822896         1.761763         1.175925
 H        -5.057107         0.061685         0.923265
 H        -5.276439         1.679714         3.423887
