19
Iteration:  2050charge 0 multiplicity 1
 C         1.530366        -0.036375        -0.295585
 C         0.105489         0.071922        -0.079607
 C        -1.090009         0.001069         0.164051
 C        -2.592187         0.013894         0.167912
 O        -3.053210         1.074281        -0.722287
 C        -3.258050         0.140805         1.570094
 C        -4.801625        -0.191592         1.574245
 C        -5.823692         0.500569         2.583923
 O        -5.419345         1.148428         3.521789
 H         1.901761        -0.205069        -1.309912
 H         2.207165         0.693234         0.217519
 H         1.832011        -0.958300         0.237222
 H        -2.918367        -0.941145        -0.352027
 H        -2.632642         1.885833        -0.420346
 H        -2.811782        -0.450460         2.409489
 H        -3.003249         1.159538         1.904011
 H        -5.170766        -0.005127         0.520898
 H        -4.757178        -1.333238         1.647762
 H        -6.944383         0.363302         2.313004
