19
Iteration:   715
 C         1.280152        -0.601957         0.283275
 C        -0.088750        -0.140733         0.122203
 C        -1.231336         0.193524        -0.130647
 C        -2.709932         0.477069        -0.154970
 O        -3.263662         1.629264        -0.780650
 C        -3.130669         0.190913         1.350550
 C        -4.713889         0.345238         1.374926
 C        -5.031777         0.770573         2.804012
 O        -5.461653        -0.104182         3.563758
 H         1.596710        -0.439503         1.277565
 H         1.388080        -1.710808         0.044583
 H         1.897626         0.018579        -0.329129
 H        -3.217951        -0.349466        -0.821897
 H        -2.795185         2.454999        -0.615383
 H        -3.001470        -0.889879         1.597672
 H        -2.731758         0.938276         2.064186
 H        -4.886164         1.186698         0.621699
 H        -5.350447        -0.442575         1.054725
 H        -4.801331         1.765531         2.959073
