19
Iteration:  1668
 C         1.410197         0.126225         0.224520
 C        -0.064060         0.110940         0.163092
 C        -1.270866        -0.161535         0.040773
 C        -2.686080         0.006599        -0.076856
 O        -3.061512         1.153409        -0.904935
 C        -3.335522         0.174520         1.241250
 C        -4.901983         0.266332         1.277660
 C        -5.429552         0.747116         2.734301
 O        -5.056141         0.329447         3.824516
 H         1.654567        -0.799320        -0.372635
 H         1.725870         1.066849        -0.305635
 H         1.824074         0.227399         1.260633
 H        -3.084599        -0.949049        -0.420632
 H        -2.822664         0.800965        -1.777459
 H        -3.011796        -0.502172         2.093485
 H        -3.007154         1.172702         1.607391
 H        -5.337334         1.087011         0.613674
 H        -5.289073        -0.714419         0.813314
 H        -6.434139         1.388316         2.706240
