19
Iteration:   112charge 0 multiplicity 1
 C         1.400266         0.109612         0.139969
 C        -0.047528        -0.140959        -0.168977
 C        -1.291910        -0.110825        -0.173473
 C        -2.722725         0.054214        -0.102701
 O        -2.983573         1.473305        -0.370232
 C        -3.143738        -0.221469         1.338605
 C        -4.693251         0.173262         1.436306
 C        -4.945898         0.789426         2.779215
 O        -5.898634         0.520000         3.461199
 H         1.535607         0.664634         1.118337
 H         1.986676        -0.697503         0.089445
 H         1.706354         0.802846        -0.671813
 H        -3.237728        -0.535969        -0.765652
 H        -3.798102         1.486624        -0.955156
 H        -2.923209        -1.253021         1.479700
 H        -2.401924        -0.013455         2.131200
 H        -4.998108         0.838647         0.697293
 H        -5.381046        -0.722514         1.392517
 H        -4.061764         1.456917         3.221714
