19
Iteration:   657charge 0 multiplicity 1
 C         1.250461        -0.567494         0.419943
 C        -0.073203        -0.138291        -0.024955
 C        -1.231705         0.128664        -0.321057
 C        -2.688752         0.407245        -0.308561
 O        -3.053407         1.613453        -0.928119
 C        -3.179104         0.515594         1.268275
 C        -4.756919         0.432298         1.485122
 C        -5.017826         0.558870         2.983264
 O        -5.652984        -0.190704         3.731753
 H         1.341060        -0.280264         1.491921
 H         1.296031        -1.611914         0.350906
 H         2.075149        -0.184705        -0.174152
 H        -3.404822        -0.330111        -0.620762
 H        -2.413813         2.335471        -0.719489
 H        -2.945045        -0.499382         1.766685
 H        -2.526885         1.201893         1.722146
 H        -5.230073         1.341231         0.994594
 H        -4.978396        -0.594572         1.086260
 H        -4.571268         1.560059         3.384607
