19
Iteration:  4401
 C         1.425508         0.315434        -0.293665
 C        -0.042412         0.090517        -0.142652
 C        -1.197653         0.290438         0.252766
 C        -2.642168         0.171518         0.866672
 O        -3.589782        -0.401539        -0.074873
 C        -3.187043         1.494353         1.250437
 C        -4.748392         1.322537         1.430405
 C        -5.415168         0.390120         2.277880
 O        -4.908798        -0.543848         2.880792
 H         1.715580         0.518892         0.732066
 H         1.983293        -0.427266        -0.838325
 H         1.569308         1.314493        -0.790133
 H        -2.634075        -0.440981         1.757371
 H        -3.229260        -1.081646        -0.648090
 H        -2.875389         1.886811         2.216065
 H        -2.984022         2.243271         0.504265
 H        -5.147426         2.247341         1.831112
 H        -5.234150         1.165831         0.393724
 H        -6.506471         0.474629         2.422400
