19
Iteration:  2123charge 0 multiplicity 1
 C         1.325780         0.350122        -0.382382
 C         0.039322        -0.152475        -0.030708
 C        -1.161342        -0.232716         0.176877
 C        -2.660265        -0.140213         0.284487
 O        -3.072320         1.114950        -0.275549
 C        -3.259937        -0.134930         1.651135
 C        -4.724597        -0.192160         1.488395
 C        -5.642885         0.589190         2.348349
 O        -5.250707         1.350530         3.230711
 H         1.416762         0.599599        -1.487052
 H         1.555275         1.213125         0.168754
 H         2.245564        -0.315761        -0.270871
 H        -3.024873        -0.984432        -0.358174
 H        -2.402351         1.820345        -0.073930
 H        -2.794731        -1.075535         2.002666
 H        -3.000961         0.529322         2.477794
 H        -4.967640         0.104622         0.466070
 H        -5.176906        -1.154279         1.664091
 H        -6.683440         0.544976         1.881488
