19
Iteration:  1489charge 0 multiplicity 1
 C         1.540904        -0.276811        -0.284039
 C         0.160750         0.115052        -0.104153
 C        -1.078042         0.166674         0.112108
 C        -2.536886         0.223043         0.204052
 O        -3.078037         1.223470        -0.709569
 C        -3.214676         0.440451         1.527044
 C        -4.771677         0.260737         1.466483
 C        -5.538137        -0.040932         2.724159
 O        -5.778378         0.761303         3.589235
 H         1.642021        -1.389632        -0.184837
 H         2.209582         0.046560        -1.146965
 H         2.026423         0.115537         0.653722
 H        -2.821216        -0.873228        -0.023131
 H        -3.289326         0.931771        -1.632592
 H        -2.875640        -0.478010         2.082795
 H        -2.691335         1.229567         2.086052
 H        -5.209466         1.228471         1.148754
 H        -4.925895        -0.496197         0.610286
 H        -6.131477        -0.951939         2.770333
