19
Iteration:  4819charge 0 multiplicity 1
 C         1.171252         0.311842         0.411917
 C        -0.270148         0.098104         0.327044
 C        -1.474673         0.079312         0.342705
 C        -2.990004         0.014580         0.196281
 O        -3.161935        -0.246644        -1.264285
 C        -3.606763         1.198282         0.917856
 C        -5.030657         1.014937         1.400472
 C        -4.948594         0.164805         2.637977
 O        -4.281188         0.322784         3.629473
 H         1.810368        -0.359516        -0.190660
 H         1.384119         1.319566        -0.080761
 H         1.368284         0.443721         1.409043
 H        -3.395764        -0.779786         0.770337
 H        -2.238910        -0.008710        -1.569649
 H        -2.911148         1.314412         1.720960
 H        -3.409340         1.997851         0.194976
 H        -5.247713         2.023373         1.859812
 H        -5.796965         0.594222         0.806902
 H        -5.664726        -0.642278         2.596163
