19
Iteration:  1577charge 0 multiplicity 1
 C         1.471525        -0.167658        -0.321401
 C         0.078800         0.046812        -0.011727
 C        -1.124538         0.072628         0.325407
 C        -2.560343         0.114858         0.290238
 O        -3.005963         1.008897        -0.744065
 C        -3.387820         0.609719         1.538734
 C        -4.820030         0.312500         1.300217
 C        -5.656136         0.160261         2.522479
 O        -5.347025         0.587851         3.651021
 H         1.596487        -1.191540        -0.792402
 H         1.776198         0.529135        -1.113459
 H         2.144112         0.049299         0.559614
 H        -2.850185        -0.756006        -0.225370
 H        -3.156709         1.901819        -0.318779
 H        -2.927505         0.098669         2.393564
 H        -2.999134         1.610419         1.837140
 H        -5.335562         1.174679         0.797735
 H        -5.057523        -0.581728         0.614641
 H        -6.565303        -0.421560         2.198893
