19
Iteration:  4542
 C         1.088912         0.508381        -0.137763
 C        -0.109535        -0.041005         0.401633
 C        -1.340205        -0.053321         0.415516
 C        -2.735559        -0.061986         0.465139
 O        -3.319907        -0.100492        -0.890015
 C        -3.264238         1.220242         1.220320
 C        -4.738658         1.038958         1.243571
 C        -5.328193         0.370860         2.508040
 O        -4.658882        -0.022184         3.447365
 H         1.905099         0.299682         0.567131
 H         1.316959         0.057721        -1.096317
 H         1.012595         1.612084        -0.392855
 H        -3.155974        -0.948607         1.018798
 H        -2.736736         0.397541        -1.488750
 H        -2.718828         1.197092         2.165370
 H        -2.903000         2.165850         0.801696
 H        -5.238140         2.050708         1.263438
 H        -5.228117         0.558872         0.440053
 H        -6.457558         0.473003         2.591972
