19
Iteration:  3303
 C         1.290573        -0.059837         0.059610
 C        -0.118369        -0.093627        -0.057562
 C        -1.292664         0.161801        -0.134731
 C        -2.858103         0.130032        -0.012033
 O        -3.592682         1.279139        -0.437398
 C        -2.967623        -0.113323         1.558071
 C        -4.332297        -0.669760         1.977340
 C        -5.360203         0.458808         2.413598
 O        -5.113724         1.514946         2.973068
 H         1.923639        -0.979675         0.251649
 H         1.720332         0.633191        -0.781087
 H         1.520509         0.518260         1.000219
 H        -3.367372        -0.555779        -0.609955
 H        -3.585867         2.016762         0.185395
 H        -2.108273        -0.809612         1.852672
 H        -2.752337         0.868759         2.050127
 H        -4.756256        -1.242873         1.170519
 H        -4.278130        -1.357339         2.787063
 H        -6.369512         0.224020         2.027830
