19
Iteration:  1040charge 0 multiplicity 1
 C         1.525636        -0.120610        -0.359105
 C         0.142531        -0.161795        -0.255195
 C        -1.130289        -0.176613        -0.118554
 C        -2.517415         0.189063         0.150353
 O        -3.024800         1.342409        -0.482242
 C        -2.980417         0.377805         1.589958
 C        -4.644009         0.531939         1.644536
 C        -5.265341         0.185892         3.020154
 O        -6.396484         0.537780         3.293026
 H         2.014193        -0.557295         0.488133
 H         1.874886        -0.598137        -1.323763
 H         1.865385         0.901700        -0.452245
 H        -3.148570        -0.703406        -0.283254
 H        -2.677971         1.441096        -1.399386
 H        -2.804315        -0.546313         2.168581
 H        -2.467606         1.097765         2.218354
 H        -4.763568         1.535692         1.364021
 H        -5.093172        -0.166305         0.797899
 H        -4.673050        -0.636647         3.563785
