19
Iteration:  2203
 C         1.338234         0.269844        -0.209008
 C        -0.022616         0.148651         0.195642
 C        -1.245349         0.092041         0.399405
 C        -2.702222        -0.118936         0.184159
 O        -3.322911         1.083659        -0.310585
 C        -3.378005        -0.614077         1.438002
 C        -4.961854        -0.503109         1.520200
 C        -5.328224         0.625770         2.456560
 O        -4.768045         1.607208         2.910014
 H         1.480806         0.678322        -1.215061
 H         2.081105         0.939245         0.329145
 H         1.887265        -0.638467        -0.368357
 H        -2.849035        -0.660435        -0.763140
 H        -3.113905         1.975909         0.083373
 H        -3.119145        -1.685082         1.415963
 H        -3.053985         0.056713         2.272919
 H        -5.317514        -0.101182         0.516688
 H        -5.446794        -1.369851         1.865899
 H        -6.490643         0.733088         2.632108
