19
Iteration:  4173
 C         1.417264         0.430385        -0.516370
 C        -0.154416         0.451250        -0.247882
 C        -1.164568         0.157513         0.348115
 C        -2.537016        -0.115082         0.904157
 O        -3.177903        -0.612810        -0.291075
 C        -3.217631         1.148499         1.611104
 C        -4.711059         1.328076         1.239254
 C        -5.653176         0.501518         2.248309
 O        -5.227168        -0.182137         3.184559
 H         1.941721         1.050488         0.240881
 H         1.715774        -0.607842        -0.284765
 H         1.817021         0.868214        -1.437392
 H        -2.343852        -0.972966         1.615193
 H        -3.214904         0.188379        -0.866439
 H        -3.036461         0.891021         2.652041
 H        -2.690071         2.050550         1.312446
 H        -4.919749         2.443244         1.343236
 H        -4.792962         1.136336         0.093676
 H        -6.762068         0.524574         2.178854
