19
Iteration:    88
 C         1.400572         0.060173         0.009592
 C        -0.051375        -0.057882        -0.006300
 C        -1.243109        -0.023020        -0.094020
 C        -2.638094         0.039681        -0.041343
 O        -2.944511         1.464413        -0.517047
 C        -3.296717        -0.314082         1.269667
 C        -4.679286         0.216810         1.447465
 C        -4.972329         0.790954         2.803925
 O        -5.897938         0.456132         3.526176
 H         1.705839         0.489403         0.957726
 H         1.849029        -0.909068        -0.078069
 H         1.737928         0.717094        -0.784011
 H        -2.919646        -0.610997        -0.826584
 H        -3.860348         1.442335        -0.831149
 H        -2.943011        -1.215691         1.612361
 H        -2.690455         0.185140         2.156765
 H        -4.820877         1.068074         0.854255
 H        -5.479016        -0.459110         1.246083
 H        -4.360158         1.767466         3.060485
