19
Iteration:  1918charge 0 multiplicity 1
 C         1.309330        -0.153473         0.469527
 C        -0.073891        -0.107975         0.108265
 C        -1.240913         0.198229         0.013234
 C        -2.728294         0.190000        -0.203231
 O        -3.158616         0.937849        -1.300241
 C        -3.327524         0.621378         1.133626
 C        -4.794895         0.180386         1.482980
 C        -5.431871         0.319021         2.850050
 O        -4.944134         0.609886         3.919755
 H         1.976652        -0.545844        -0.331279
 H         1.617194         0.851220         0.736350
 H         1.295888        -0.881224         1.317948
 H        -2.871321        -0.866052        -0.479904
 H        -2.560660         1.683813        -1.415914
 H        -2.791778         0.276479         2.030881
 H        -3.509697         1.701186         1.168500
 H        -5.583138         0.443635         0.779918
 H        -4.900950        -0.934619         1.504142
 H        -6.569550         0.289492         2.695222
