19
Iteration:  2098charge 0 multiplicity 1
 C         1.361582         0.220126        -0.347401
 C         0.043205        -0.095111        -0.036385
 C        -1.183389        -0.247223         0.075921
 C        -2.608700        -0.075088         0.275370
 O        -3.016716         1.196700        -0.525967
 C        -3.131194        -0.125150         1.796879
 C        -4.736720        -0.261718         1.517074
 C        -5.706861         0.654091         2.371604
 O        -5.419588         1.277161         3.380700
 H         1.348070         0.420368        -1.432508
 H         1.606345         1.238600         0.102484
 H         2.294484        -0.350486        -0.226924
 H        -3.007395        -0.963258        -0.290913
 H        -2.286067         1.829227        -0.278505
 H        -2.510981        -0.908850         2.243450
 H        -3.005595         0.705380         2.510638
 H        -4.822031         0.097848         0.481886
 H        -5.322465        -1.261614         1.629078
 H        -6.781519         0.542979         1.933235
