19
Iteration:  2535
 C         1.194019         0.781417        -0.071763
 C        -0.167660         0.155224         0.201107
 C        -1.287811        -0.263375         0.217152
 C        -2.736097        -0.469040         0.049847
 O        -3.303354         0.882247        -0.416112
 C        -3.523967        -0.679978         1.408033
 C        -4.919549        -0.045236         1.339906
 C        -5.241796         0.829818         2.515072
 O        -4.427142         1.341927         3.302186
 H         1.045169         1.787347        -0.306702
 H         1.875528         0.530671         0.751581
 H         1.469698         0.280830        -0.945396
 H        -2.942027        -1.262627        -0.735825
 H        -2.565486         1.352912        -0.786716
 H        -3.578958        -1.749410         1.587931
 H        -3.251130         0.069156         2.205491
 H        -4.881499         0.842839         0.556636
 H        -5.961118        -0.375818         1.045440
 H        -6.311952         0.990881         2.727006
