19
Iteration:   569
 C         1.419562        -0.449798         0.129879
 C        -0.028875        -0.268694        -0.046905
 C        -1.259718        -0.093923        -0.034453
 C        -2.725166         0.353480        -0.035636
 O        -3.008021         1.608864        -0.819158
 C        -3.223698         0.694909         1.274327
 C        -4.753931         0.623150         1.501182
 C        -5.010217         0.509065         3.013422
 O        -5.793739        -0.258062         3.532049
 H         1.746423         0.028430         1.081347
 H         1.722196        -1.427237         0.152905
 H         1.964129         0.020355        -0.696101
 H        -3.256229        -0.467784        -0.623753
 H        -2.904725         1.330674        -1.757009
 H        -2.645763        -0.036818         1.912533
 H        -3.001953         1.671921         1.541608
 H        -5.304861         1.487078         1.102434
 H        -5.169655        -0.138807         0.887752
 H        -4.364199         1.238923         3.549145
