19
Iteration:  4949charge 0 multiplicity 1
 C         1.318701         0.275345         0.459123
 C        -0.166406         0.442969         0.191217
 C        -1.400881         0.219281         0.219585
 C        -2.792254        -0.009466         0.358901
 O        -3.468501        -0.484344        -0.944950
 C        -3.462220         1.272179         0.760443
 C        -4.895673         1.145486         1.382207
 C        -5.163628         0.527526         2.750226
 O        -4.419790        -0.189944         3.390753
 H         2.013037         0.059719        -0.389436
 H         1.705805         1.217260         0.894724
 H         1.500293        -0.541760         1.090693
 H        -2.985354        -0.721310         1.215171
 H        -2.906647        -1.171777        -1.397229
 H        -2.707331         1.904865         1.236659
 H        -3.555383         1.742104        -0.268886
 H        -5.493849         2.102775         1.334822
 H        -5.490115         0.539816         0.717349
 H        -6.113368         0.868689         3.144792
