19
Iteration:  1671charge 0 multiplicity 1
 C         1.390635         0.130996         0.258624
 C        -0.073147         0.097114         0.144160
 C        -1.235869        -0.158281         0.021552
 C        -2.675148        -0.010205        -0.101298
 O        -3.081957         1.156443        -0.917109
 C        -3.352203         0.175334         1.289862
 C        -4.887226         0.264871         1.250094
 C        -5.441478         0.762218         2.736627
 O        -5.039879         0.320568         3.831631
 H         1.702926        -0.714408        -0.281098
 H         1.688546         1.074208        -0.288855
 H         1.724843         0.185862         1.259278
 H        -3.059557        -0.950692        -0.386418
 H        -2.926840         0.869564        -1.822559
 H        -2.994711        -0.488947         2.039864
 H        -2.914717         1.095163         1.643200
 H        -5.291581         1.074933         0.668906
 H        -5.291487        -0.629892         0.857096
 H        -6.394143         1.452372         2.670274
