19
Iteration:   155charge 0 multiplicity 1
 C         1.381499         0.069879         0.165444
 C        -0.049196        -0.031875        -0.130892
 C        -1.273453        -0.084740        -0.340524
 C        -2.737736         0.052692        -0.166024
 O        -2.966583         1.466958        -0.396613
 C        -3.121112        -0.199524         1.225470
 C        -4.640688        -0.010050         1.527750
 C        -5.008191         0.703768         2.859226
 O        -6.006549         0.662485         3.550780
 H         1.576456         0.550831         1.146670
 H         1.847256        -0.827752         0.187371
 H         1.886092         0.713661        -0.563106
 H        -3.442595        -0.549962        -0.706997
 H        -2.270025         1.765793        -1.055041
 H        -2.872021        -1.190152         1.463490
 H        -2.339987         0.485528         1.782238
 H        -5.131477         0.472566         0.749110
 H        -5.015664        -1.043359         1.667651
 H        -4.319250         1.313554         3.355819
