19
Iteration:  2192charge 0 multiplicity 1
 C         1.379856         0.261547        -0.288037
 C        -0.016568         0.197863         0.147500
 C        -1.189861         0.054975         0.350889
 C        -2.630765        -0.087631         0.204939
 O        -3.225971         1.108629        -0.364541
 C        -3.463199        -0.625465         1.503077
 C        -4.961544        -0.506853         1.546870
 C        -5.448866         0.664032         2.466016
 O        -4.806018         1.588372         2.947065
 H         1.259142         0.698838        -1.271105
 H         1.871153         0.975155         0.429806
 H         1.841812        -0.715799        -0.252826
 H        -2.746092        -0.931629        -0.498587
 H        -2.972611         1.783991         0.292925
 H        -3.148261        -1.650586         1.771568
 H        -3.016228        -0.170766         2.417046
 H        -5.429116         0.008661         0.647224
 H        -5.577733        -1.356888         1.559446
 H        -6.591564         0.495415         2.582331
