19
Iteration:   969charge 0 multiplicity 1
 C         1.527680        -0.325607        -0.424222
 C        -0.005156         0.140120        -0.064777
 C        -1.204842         0.015072         0.023802
 C        -2.627092         0.109704         0.105154
 O        -3.070844         1.397410        -0.592249
 C        -3.009732         0.196282         1.641679
 C        -4.489606         0.551367         1.699271
 C        -5.132474         0.405160         3.015664
 O        -6.343221         0.350639         3.125099
 H         2.144231        -0.833530         0.371456
 H         1.456459        -1.048836        -1.207269
 H         2.248966         0.421056        -0.834231
 H        -3.068556        -0.991211        -0.173280
 H        -2.405984         1.386161        -1.342099
 H        -2.800619        -0.638032         2.313264
 H        -2.650989         1.117758         2.179451
 H        -4.584855         1.614559         1.256189
 H        -4.946118        -0.317854         1.187081
 H        -4.523924        -0.019054         3.937430
