19
Iteration:  3592
 C         1.321369         0.449794        -0.187505
 C        -0.096875         0.220448        -0.094076
 C        -1.232894        -0.261326         0.186876
 C        -2.719231        -0.345414         0.249159
 O        -3.087409         0.482774        -0.863935
 C        -3.197037         0.160285         1.506792
 C        -4.832501         0.242280         1.414197
 C        -5.496785         0.835122         2.590521
 O        -5.124158         0.953373         3.718414
 H         1.699662         0.426752        -1.258241
 H         1.504348         1.464913         0.130582
 H         1.983742        -0.295514         0.382908
 H        -2.924171        -1.394316         0.069334
 H        -2.231557         0.834338        -1.194666
 H        -2.809465        -0.231370         2.531581
 H        -2.955625         1.243030         1.448694
 H        -5.025966         0.716348         0.480247
 H        -5.254028        -0.737608         1.488629
 H        -6.563395         1.123830         2.443158
