19
Iteration:  1232charge 0 multiplicity 1
 C         1.460710        -0.147870         0.102559
 C         0.011654        -0.057512        -0.070825
 C        -1.226682         0.129018        -0.021696
 C        -2.692279         0.293281        -0.149949
 O        -3.156674         1.504876        -0.515434
 C        -3.248655        -0.051360         1.293452
 C        -4.779198        -0.115649         1.398906
 C        -5.059957         0.074968         2.955488
 O        -5.709197         1.023942         3.429755
 H         1.696323        -1.073118         0.729058
 H         2.007641        -0.309059        -0.808967
 H         1.845748         0.764986         0.620290
 H        -2.862365        -0.649862        -0.766919
 H        -2.995254         1.811061        -1.444642
 H        -2.707796        -0.924454         1.603890
 H        -2.803950         0.779596         1.863802
 H        -5.133267         0.937197         1.167069
 H        -5.365057        -0.856247         0.926693
 H        -4.446641        -0.657016         3.565128
