19
Iteration:  3820charge 0 multiplicity 1
 C         1.230736         0.177561         0.373060
 C        -0.246686         0.201659         0.379786
 C        -1.488088         0.134551         0.393859
 C        -2.917649        -0.018432         0.337695
 O        -3.149531        -0.248389        -1.194057
 C        -3.643121         1.171663         0.875670
 C        -5.108655         0.968999         1.335677
 C        -5.118734         0.318170         2.759982
 O        -4.092234         0.392816         3.374108
 H         1.727389         0.892007        -0.314983
 H         1.684332         0.330647         1.356051
 H         1.569717        -0.840609         0.055730
 H        -3.314568        -0.897672         0.870992
 H        -2.932858        -1.202667        -1.250955
 H        -3.098265         1.662771         1.649229
 H        -3.906114         1.899592         0.138087
 H        -5.653851         1.911831         1.446187
 H        -5.645553         0.338854         0.676552
 H        -6.028875        -0.137484         3.189842
