19
Iteration:  4243charge 0 multiplicity 1
 C         1.335814         0.334513        -0.608730
 C        -0.018222         0.352969        -0.010270
 C        -1.176263         0.139805         0.352624
 C        -2.550479         0.146862         0.872297
 O        -3.363252        -0.479250        -0.025755
 C        -3.186719         1.345549         1.501636
 C        -4.710195         1.311592         1.377374
 C        -5.551126         0.246844         2.018745
 O        -5.127676        -0.273061         3.027221
 H         2.116302         0.671889         0.090526
 H         1.536755        -0.747277        -0.769694
 H         1.462436         1.018962        -1.425198
 H        -2.568679        -0.467542         1.767464
 H        -3.042137        -0.807732        -0.875190
 H        -2.928191         1.385296         2.572759
 H        -2.863144         2.291614         0.985638
 H        -5.016994         2.325540         1.805148
 H        -5.013237         1.383234         0.376640
 H        -6.553040         0.127513         1.594778
