19
Iteration:  4654
 C         1.376253         0.113394         0.515560
 C        -0.108100         0.328287         0.148925
 C        -1.295117         0.216146        -0.104535
 C        -2.788626         0.136354         0.099360
 O        -3.528767        -0.215159        -1.114503
 C        -3.377556         1.308496         0.942022
 C        -4.819472         0.757173         1.429473
 C        -5.244666         0.349491         2.783861
 O        -4.601611         0.119214         3.798363
 H         1.645480        -0.815443         1.009786
 H         2.030879         0.106523        -0.439089
 H         1.765260         0.938309         1.049997
 H        -2.982304        -0.741660         0.787585
 H        -2.885622        -0.215034        -1.817186
 H        -2.826867         1.742724         1.775556
 H        -3.713289         2.156980         0.388421
 H        -5.592571         1.456595         1.074132
 H        -4.923227        -0.141289         0.826681
 H        -6.343260         0.244446         2.802681
