19
Iteration:   395
 C         1.419730        -0.190784        -0.538654
 C         0.103672        -0.083892        -0.031960
 C        -1.126101        -0.236058         0.139529
 C        -2.531260         0.192040         0.238627
 O        -2.801651         1.362315        -0.773702
 C        -3.144737         0.494374         1.586046
 C        -4.716544         0.564952         1.606076
 C        -5.276043         0.627307         3.031437
 O        -6.290506        -0.035207         3.361080
 H         2.237229         0.292533         0.170192
 H         1.672873        -1.215235        -0.576276
 H         1.580877         0.204520        -1.615229
 H        -3.095720        -0.542632        -0.241487
 H        -2.131707         1.254833        -1.506016
 H        -2.811531        -0.167832         2.385862
 H        -2.841527         1.421499         2.047937
 H        -4.828809         1.528003         1.137616
 H        -5.206668        -0.257658         1.156466
 H        -4.883127         1.567781         3.451916
