19
Iteration:   387charge 0 multiplicity 1
 C         1.430846        -0.167273        -0.525441
 C         0.041613        -0.087753        -0.071026
 C        -1.117090        -0.257028         0.207532
 C        -2.530687         0.231816         0.184285
 O        -2.771107         1.360350        -0.746956
 C        -3.143122         0.461156         1.607656
 C        -4.669080         0.501525         1.635641
 C        -5.306276         0.634967         2.967566
 O        -6.268818         0.021581         3.369033
 H         2.117572         0.366918         0.151641
 H         1.700863        -1.249716        -0.526180
 H         1.523504         0.292449        -1.504775
 H        -3.212102        -0.495383        -0.343262
 H        -2.440578         1.219186        -1.649727
 H        -2.824197        -0.340608         2.187417
 H        -2.912597         1.514951         1.968270
 H        -4.982449         1.496030         1.076998
 H        -5.120500        -0.382293         0.978898
 H        -4.718456         1.396158         3.817475
