19
Iteration:  1505
 C         1.509427        -0.306009        -0.261175
 C         0.132030         0.061368        -0.119229
 C        -1.035088         0.329011         0.169783
 C        -2.488828         0.242560         0.145936
 O        -3.098149         1.142213        -0.748048
 C        -3.159092         0.391669         1.559406
 C        -4.691285         0.332468         1.471751
 C        -5.635146        -0.003838         2.693931
 O        -5.814869         0.712522         3.674131
 H         1.564235        -1.384833        -0.496887
 H         1.781709         0.134958        -1.203127
 H         2.250952         0.028478         0.470193
 H        -2.817315        -0.765779        -0.258384
 H        -2.799215         0.743805        -1.606299
 H        -2.757810        -0.385817         2.328243
 H        -2.970129         1.391362         2.019892
 H        -5.158120         1.196888         0.972212
 H        -4.925420        -0.482427         0.833402
 H        -6.168272        -0.944437         2.392613
