19
Iteration:   480charge 0 multiplicity 1
 C         1.413305        -0.509409        -0.304472
 C         0.077702        -0.081614        -0.035280
 C        -1.116812         0.198122         0.012897
 C        -2.564098         0.232657         0.161258
 O        -3.142585         1.209537        -0.677483
 C        -3.127257         0.587841         1.645010
 C        -4.649647         0.722946         1.581805
 C        -5.284212         0.682930         2.835096
 O        -5.938695        -0.225046         3.268344
 H         2.145887        -0.126869         0.404261
 H         1.522419        -1.542157        -0.391260
 H         1.663063        -0.041208        -1.269465
 H        -2.935401        -0.829004        -0.072585
 H        -2.638736         1.985012        -0.362749
 H        -2.789976        -0.223081         2.362255
 H        -2.536102         1.422960         1.731649
 H        -4.813475         1.714969         1.137588
 H        -5.158480         0.095469         0.920769
 H        -5.181426         1.520880         3.501364
