19
Iteration:  1663charge 0 multiplicity 1
 C         1.426887         0.120142         0.161455
 C        -0.072263         0.121254         0.197789
 C        -1.277214        -0.147454         0.076857
 C        -2.715952         0.018291        -0.047957
 O        -3.024609         1.134544        -0.888150
 C        -3.331724         0.203433         1.215861
 C        -4.925520         0.277476         1.317195
 C        -5.431478         0.694542         2.719415
 O        -5.076462         0.348630         3.804594
 H         1.708246        -0.787406        -0.380649
 H         1.823837         0.976820        -0.360161
 H         1.921700         0.181121         1.143694
 H        -3.162355        -0.933069        -0.602224
 H        -2.681330         0.815262        -1.740074
 H        -3.041631        -0.494085         1.976691
 H        -3.111425         1.241469         1.544341
 H        -5.281638         0.981980         0.581952
 H        -5.323096        -0.681370         0.968809
 H        -6.309117         1.264131         2.708282
