19
Iteration:   574charge 0 multiplicity 1
 C         1.427538        -0.450876         0.157206
 C        -0.041715        -0.258102        -0.022591
 C        -1.284270        -0.114576        -0.058817
 C        -2.707714         0.363854        -0.054806
 O        -3.013905         1.634119        -0.852646
 C        -3.241928         0.657383         1.301932
 C        -4.741431         0.604836         1.543596
 C        -5.013768         0.494444         2.969348
 O        -5.767975        -0.240737         3.543779
 H         1.804813         0.044979         1.052833
 H         1.872877        -1.587770         0.170618
 H         1.908543         0.080939        -0.689610
 H        -3.436051        -0.335870        -0.595578
 H        -2.818821         1.420766        -1.767766
 H        -2.690898        -0.017657         1.981475
 H        -2.978053         1.841281         1.428726
 H        -5.318573         1.415251         1.030658
 H        -5.308321        -0.134993         0.850881
 H        -4.312576         1.152655         3.628224
