19
Iteration:  2413charge 0 multiplicity 1
 C         1.151234         0.482722         0.461690
 C        -0.326167         0.323771         0.133079
 C        -1.508206         0.050239         0.070950
 C        -2.896123        -0.236674        -0.077126
 O        -3.652922         0.883103        -0.420121
 C        -3.387255        -0.783907         1.291802
 C        -4.820128        -0.334512         1.546057
 C        -4.906617         0.969204         2.265534
 O        -4.124038         1.330879         3.124784
 H         1.463996         1.450726         0.163011
 H         1.175917         0.545745         1.568633
 H         1.649584        -0.254298        -0.124172
 H        -3.031001        -0.865576        -1.016472
 H        -3.290383         1.725948        -0.171659
 H        -3.156933        -1.875017         1.298756
 H        -2.678078        -0.246077         1.985622
 H        -5.536764        -0.577874         0.720622
 H        -5.221563        -1.005119         2.240955
 H        -5.615060         1.799551         1.924922
