19
Iteration:  2950charge 0 multiplicity 1
 C         1.367041        -0.078095         0.136098
 C        -0.064646         0.352041        -0.065884
 C        -1.307541         0.324174        -0.127233
 C        -2.741442        -0.064777        -0.011257
 O        -3.720587         0.648989        -0.666257
 C        -3.057640        -0.046447         1.474073
 C        -4.464802        -0.390549         1.880928
 C        -5.325615         0.548788         2.598044
 O        -5.011403         1.600257         3.134331
 H         1.455845        -0.095868         1.207264
 H         1.550900        -1.073924        -0.201390
 H         2.209815         0.513352        -0.165010
 H        -2.768132        -1.119751        -0.374390
 H        -3.418887         1.561353        -0.703739
 H        -2.451408        -0.809060         2.001919
 H        -2.775116         0.953638         1.908697
 H        -5.166118        -0.891527         1.037361
 H        -4.418831        -1.199890         2.753968
 H        -6.390046         0.223067         2.583754
