19
Iteration:  1114charge 0 multiplicity 1
 C         1.631916        -0.185913        -0.436995
 C         0.179262        -0.085157         0.016454
 C        -1.096216         0.135374         0.126021
 C        -2.597588         0.141740         0.109637
 O        -2.970458         1.323272        -0.730033
 C        -3.249916         0.135518         1.431782
 C        -4.805105         0.443224         1.475450
 C        -5.307404         0.130888         2.918414
 O        -6.152140         0.670355         3.600841
 H         2.316430        -0.847990         0.148991
 H         1.706816        -0.531865        -1.462363
 H         2.091562         0.812451        -0.403134
 H        -2.953240        -0.631276        -0.471558
 H        -2.178688         1.851926        -0.816324
 H        -3.158729        -0.745649         2.094196
 H        -2.871380         1.003519         2.025761
 H        -5.066165         1.521257         1.221802
 H        -5.317757        -0.344904         0.964183
 H        -4.706346        -0.809087         3.261745
