19
Iteration:  4197charge 0 multiplicity 1
 C         1.254812         0.288034        -0.531045
 C        -0.094170         0.488427        -0.042369
 C        -1.237934         0.461487         0.370382
 C        -2.491676        -0.049859         0.800836
 O        -3.272576        -0.681279        -0.194491
 C        -3.205661         1.100643         1.570373
 C        -4.658149         1.243231         1.328367
 C        -5.545572         0.507547         2.144537
 O        -5.144543        -0.168755         3.074051
 H         1.904740         0.842135         0.153292
 H         1.556339        -0.811881        -0.455751
 H         1.434284         0.883133        -1.397083
 H        -2.065244        -0.805276         1.477724
 H        -3.284269        -0.069676        -0.930166
 H        -2.999463         0.752537         2.584519
 H        -2.657541         2.049260         1.327558
 H        -4.972628         2.329453         1.590826
 H        -4.906402         1.212299         0.263599
 H        -6.607573         0.427724         1.806076
