19
Iteration:  2830
 C         1.312835         0.114650        -0.162521
 C        -0.136066        -0.155597        -0.121879
 C        -1.316195        -0.147197         0.204578
 C        -2.734198        -0.033688         0.042639
 O        -2.898121         0.871220        -1.152735
 C        -3.308467         0.563387         1.337338
 C        -4.543835        -0.221273         1.873306
 C        -5.237965         0.292465         3.145869
 O        -5.611369         1.405782         3.460399
 H         1.714287         0.733075         0.679619
 H         1.952952        -0.851758        -0.230667
 H         1.613175         0.516693        -1.183044
 H        -3.215086        -1.012500        -0.239477
 H        -2.166234         0.681893        -1.797440
 H        -2.468216         0.648368         2.043497
 H        -3.519890         1.626028         1.149450
 H        -5.376620        -0.208103         1.205235
 H        -4.251492        -1.210902         1.995061
 H        -5.586721        -0.532854         3.794176
