19
Iteration:   266charge 0 multiplicity 1
 C         1.438811        -0.272984        -0.140219
 C         0.043992         0.168568        -0.158560
 C        -1.144353         0.158523        -0.020710
 C        -2.597848         0.207509         0.078277
 O        -3.275584         1.352164        -0.583619
 C        -2.975163        -0.141105         1.467687
 C        -4.527079         0.095599         1.538645
 C        -5.069648         0.698971         2.927296
 O        -6.174108         0.525109         3.348404
 H         1.928002         0.072541         0.781420
 H         1.382206        -1.300797        -0.085402
 H         2.030345         0.037785        -0.983699
 H        -2.943003        -0.534461        -0.704424
 H        -2.559958         1.946119        -0.789309
 H        -2.906799        -1.152030         1.667871
 H        -2.630147         0.625592         2.244380
 H        -4.852005         0.677206         0.692465
 H        -5.119945        -0.877874         1.356415
 H        -4.204551         1.255082         3.451048
