19
Iteration:  2406charge 0 multiplicity 1
 C         1.078636         0.499377         0.527695
 C        -0.307032         0.295975         0.076590
 C        -1.511913         0.084965         0.013752
 C        -2.923533        -0.248168        -0.026576
 O        -3.668877         0.949954        -0.451792
 C        -3.328082        -0.797925         1.273672
 C        -4.793910        -0.414057         1.569835
 C        -4.873463         1.021566         2.201976
 O        -4.130491         1.327920         3.112662
 H         1.645085         1.428589         0.188579
 H         1.217385         0.373430         1.632776
 H         1.603116        -0.388250        -0.008840
 H        -3.090564        -0.877533        -0.894767
 H        -3.216279         1.698873        -0.005764
 H        -3.264076        -1.871902         1.468858
 H        -2.771320        -0.390018         2.104841
 H        -5.592014        -0.582644         0.862800
 H        -5.069732        -1.035656         2.521792
 H        -5.750924         1.675836         2.070960
