19
Iteration:  4371
 C         1.172501         0.332441        -0.364281
 C        -0.204827         0.293376        -0.010715
 C        -1.291167         0.012557         0.415297
 C        -2.614449         0.161792         0.898331
 O        -3.447840        -0.498092        -0.088440
 C        -3.152440         1.567701         1.262854
 C        -4.735968         1.550958         1.470245
 C        -5.344073         0.282279         2.108537
 O        -4.757253        -0.515180         2.799274
 H         1.592300         0.340013         0.651720
 H         1.510491        -0.683605        -0.788625
 H         1.434962         1.144029        -1.003966
 H        -2.873530        -0.384829         1.864937
 H        -2.955156        -1.225866        -0.524109
 H        -2.794439         1.913776         2.251736
 H        -2.881796         2.406302         0.584758
 H        -5.057749         2.399522         2.071436
 H        -5.252346         1.610613         0.496754
 H        -6.397320        -0.044669         1.835646
