19
Iteration:  4678
 C         1.316813         0.124727         0.511961
 C        -0.020705         0.281416         0.081648
 C        -1.263138         0.240136         0.032466
 C        -2.714038         0.062226         0.182957
 O        -3.482259        -0.042069        -1.046636
 C        -3.532062         1.167149         0.858133
 C        -5.040225         0.685208         1.340814
 C        -5.230797         0.410230         2.828946
 O        -4.421411         0.172709         3.700651
 H         1.394523        -0.921075         0.803084
 H         2.178240         0.081568        -0.231582
 H         1.689049         0.767781         1.271766
 H        -2.973469        -0.908436         0.657189
 H        -2.915400        -0.124936        -1.856034
 H        -3.122368         1.498347         1.768893
 H        -3.701973         2.099342         0.309213
 H        -5.779436         1.438456         1.112861
 H        -5.172401        -0.293291         0.788951
 H        -6.317503         0.336730         3.042717
