19
Iteration:  1451
 C         1.450252        -0.122190        -0.169365
 C         0.032644        -0.093032         0.015247
 C        -1.132897         0.057923         0.089667
 C        -2.659193         0.152717         0.060835
 O        -3.055900         1.355113        -0.554569
 C        -3.242751         0.313285         1.423224
 C        -4.754245         0.202078         1.351297
 C        -5.285739        -0.006369         2.775218
 O        -5.681151         0.862778         3.499586
 H         1.887022        -1.093480        -0.001262
 H         1.713098         0.387542        -1.065269
 H         1.810558         0.444780         0.681231
 H        -3.210588        -0.630776        -0.380474
 H        -2.869468         1.156494        -1.490993
 H        -3.023387        -0.661060         1.818691
 H        -3.104561         1.195299         2.000825
 H        -5.341723         1.076244         1.025941
 H        -5.053221        -0.658585         0.739614
 H        -4.931724        -0.980506         3.184790
