19
Iteration:   952charge 0 multiplicity 1
 C         1.343004        -0.319186        -0.425890
 C         0.128388         0.083453         0.004972
 C        -1.092727         0.056913         0.059981
 C        -2.579339         0.152205         0.096519
 O        -3.075944         1.315400        -0.551808
 C        -3.026336         0.233881         1.552352
 C        -4.550155         0.538023         1.630344
 C        -5.117258         0.419140         3.013422
 O        -6.322041         0.312149         3.181499
 H         1.968940        -0.759939         0.381552
 H         1.262360        -1.157255        -1.173213
 H         1.957377         0.506225        -0.798845
 H        -3.103936        -0.644888        -0.379144
 H        -2.390141         1.599496        -1.185738
 H        -2.782724        -0.791078         1.886338
 H        -2.400986         1.071455         1.904569
 H        -4.808969         1.561244         1.395525
 H        -5.119646        -0.188522         0.965407
 H        -4.526555         0.545120         3.927353
