19
Iteration:  3735charge 0 multiplicity 1
 C         1.258124         0.420793         0.512280
 C        -0.072854        -0.060273         0.110285
 C        -1.285574        -0.001764        -0.063685
 C        -2.705243        -0.156759         0.126082
 O        -3.484794        -0.143247        -1.151490
 C        -3.367658         0.999100         1.096653
 C        -4.951710         0.802376         1.344102
 C        -5.328127         0.552015         2.824709
 O        -4.457431         0.543764         3.702028
 H         1.575632         1.006283        -0.363143
 H         0.974511         1.033859         1.282298
 H         1.952212        -0.376386         0.812100
 H        -3.055988        -1.078672         0.620931
 H        -2.923974        -0.234399        -1.938687
 H        -2.813242         0.850456         2.071283
 H        -3.049487         1.987160         0.739017
 H        -5.464534         1.574223         0.799184
 H        -5.331278        -0.197993         0.855754
 H        -6.343316         0.078453         3.078353
