19
Iteration:  3699
 C         1.197818         0.352764         0.388747
 C        -0.162625         0.347308         0.085388
 C        -1.319923        -0.062935         0.051270
 C        -2.702370        -0.300828         0.132851
 O        -3.512750        -0.025388        -1.035012
 C        -3.211942         0.675159         1.179592
 C        -4.834910         0.691911         1.286022
 C        -5.298020         0.676761         2.703353
 O        -4.584926         0.624053         3.713503
 H         1.905825         0.726890        -0.318809
 H         1.508717         1.063231         1.150654
 H         1.664040        -0.542024         0.761633
 H        -2.755307        -1.329888         0.458111
 H        -3.077370        -0.109254        -1.901154
 H        -2.939750         0.294545         2.115927
 H        -2.749681         1.620663         1.022003
 H        -5.172667         1.472097         0.554509
 H        -5.423260        -0.197640         0.732060
 H        -6.415150         0.588567         2.819221
