19
Iteration:  2971charge 0 multiplicity 1
 C         1.293125         0.007186         0.126042
 C        -0.107838         0.279238         0.026773
 C        -1.276637         0.322422        -0.188568
 C        -2.695975        -0.112496         0.012723
 O        -3.777611         0.680124        -0.638263
 C        -2.938246        -0.232109         1.555092
 C        -4.430670        -0.464454         1.843137
 C        -5.325212         0.710650         2.444993
 O        -5.007430         1.651147         3.183216
 H         1.609028        -0.143419         1.140680
 H         1.564615        -0.813306        -0.462966
 H         1.817675         0.855017        -0.277863
 H        -2.835488        -1.158510        -0.339843
 H        -4.019454         1.371327         0.033620
 H        -2.336012        -0.932655         2.156154
 H        -2.577478         0.767471         1.855246
 H        -4.861749        -0.779860         0.787338
 H        -4.664424        -1.421991         2.523004
 H        -6.375380         0.620379         2.182269
