19
Iteration:  3666
 C         1.313579         0.394587         0.187002
 C        -0.156360         0.331186         0.259343
 C        -1.306316        -0.026802         0.029205
 C        -2.695777        -0.307304         0.079492
 O        -3.439864         0.070175        -1.126077
 C        -3.160695         0.446701         1.330411
 C        -4.802319         0.525979         1.310232
 C        -5.365461         0.820446         2.715517
 O        -4.795371         0.708411         3.762704
 H         1.567329         0.622413        -0.823918
 H         1.638023         1.221953         0.794304
 H         1.816569        -0.497752         0.497609
 H        -2.657743        -1.404778         0.263436
 H        -2.997934        -0.527330        -1.750198
 H        -2.740671        -0.112112         2.114138
 H        -2.871026         1.474121         1.424981
 H        -5.090728         1.489342         0.835197
 H        -5.390298        -0.400533         0.940101
 H        -6.434761         1.193680         2.762333
