19
Iteration:  2339
 C         0.890220         0.386034         0.714226
 C        -0.446394         0.100647         0.200199
 C        -1.579710         0.026081        -0.238234
 C        -2.999895        -0.073198        -0.254383
 O        -3.642650         1.197833        -0.122827
 C        -3.090634        -0.794091         1.147286
 C        -4.471926        -0.538494         1.894969
 C        -4.950446         0.812882         2.145194
 O        -4.211454         1.559605         2.757092
 H         1.479489         1.161765         0.217331
 H         0.940715         0.525572         1.837138
 H         1.244621        -0.608124         0.312174
 H        -3.627226        -0.683587        -0.909200
 H        -3.048498         1.749984         0.443788
 H        -2.751219        -1.816871         0.857660
 H        -2.251054        -0.478189         1.796646
 H        -5.233122        -1.211227         1.428177
 H        -4.291771        -1.118529         2.851283
 H        -6.007702         1.116321         1.858475
