19
Iteration:  4192
 C         1.219429         0.313052        -0.479627
 C        -0.079919         0.477264        -0.110097
 C        -1.202371         0.403706         0.344292
 C        -2.467073        -0.041471         0.826675
 O        -3.239149        -0.669075        -0.221663
 C        -3.195224         1.091273         1.589366
 C        -4.684447         1.220085         1.330428
 C        -5.559986         0.506938         2.137962
 O        -5.143819        -0.152116         3.086331
 H         1.890459         0.898823         0.196222
 H         1.472220        -0.712297        -0.472940
 H         1.419723         0.860108        -1.467127
 H        -2.222236        -0.861753         1.586044
 H        -3.379267        -0.025555        -0.972184
 H        -3.142275         0.907465         2.690781
 H        -2.621387         1.965716         1.372576
 H        -5.021803         2.198417         1.664504
 H        -5.004254         1.226977         0.235124
 H        -6.635414         0.712171         1.848785
