19
Iteration:   790
 C         1.484358        -0.360881         0.016575
 C        -0.052793        -0.243190        -0.078751
 C        -1.259218         0.000667        -0.009473
 C        -2.666267         0.375689        -0.021788
 O        -2.822314         1.689496        -0.589114
 C        -3.360568         0.213640         1.311754
 C        -4.975027         0.318726         1.339329
 C        -5.249195         0.750496         2.798136
 O        -5.571815        -0.005989         3.705605
 H         1.774938        -0.292760         1.052615
 H         1.784137        -1.385410        -0.337494
 H         1.992172         0.406901        -0.530674
 H        -3.119301        -0.369140        -0.621025
 H        -2.605342         1.832901        -1.536985
 H        -3.142583        -0.860628         1.693189
 H        -2.973505         0.948250         2.002588
 H        -5.222984         0.817383         0.329513
 H        -5.265849        -0.728049         1.143035
 H        -4.988479         1.786379         2.864583
