19
Iteration:  2255
 C         1.292284         0.221422         0.248441
 C        -0.211346         0.230000         0.107622
 C        -1.418854         0.138120        -0.023066
 C        -2.902663        -0.074102         0.070829
 O        -3.580066         1.231087        -0.170230
 C        -3.270712        -0.700171         1.475312
 C        -4.762703        -0.726601         1.696526
 C        -5.183036         0.741849         2.252643
 O        -4.390076         1.575159         2.693174
 H         1.844265         0.871827        -0.528923
 H         1.578864         0.633516         1.202464
 H         1.815257        -0.779439         0.218286
 H        -3.378986        -0.622440        -0.795545
 H        -3.459915         1.825474         0.605328
 H        -2.833276        -1.707933         1.422717
 H        -2.890594        -0.069157         2.321963
 H        -5.341060        -0.667893         0.727611
 H        -5.054132        -1.585636         2.361416
 H        -6.269237         1.028643         2.314979
