19
Iteration:  1405
 C         1.460171         0.027477         0.054382
 C        -0.096685        -0.099489         0.058016
 C        -1.284975        -0.092577        -0.116300
 C        -2.697114         0.227908        -0.180292
 O        -2.934988         1.451129        -0.705121
 C        -3.217889        -0.043712         1.299107
 C        -4.818207         0.037895         1.496327
 C        -5.133207         0.066475         2.987289
 O        -5.741983         1.018724         3.537974
 H         1.968892        -0.963053         0.216025
 H         1.667356         0.395374        -0.898905
 H         1.913052         0.708140         0.804912
 H        -3.229633        -0.433093        -0.823090
 H        -2.302172         2.073519        -0.351105
 H        -3.064803        -1.143452         1.443246
 H        -2.746080         0.755180         1.922625
 H        -5.257505         0.908128         0.975577
 H        -5.063759        -0.814748         0.904872
 H        -4.627750        -0.716218         3.474879
