19
Iteration:  2856charge 0 multiplicity 1
 C         1.368102         0.153923        -0.117057
 C        -0.047318        -0.142743         0.077697
 C        -1.274707        -0.272576        -0.061261
 C        -2.720831         0.003910         0.016455
 O        -3.073482         0.949856        -1.000681
 C        -3.329284         0.510149         1.377148
 C        -4.604066        -0.307534         1.894196
 C        -5.229290         0.283448         3.131317
 O        -5.459937         1.479971         3.294448
 H         1.853855         0.702845         0.727790
 H         2.008415        -0.834900        -0.224259
 H         1.593139         0.708874        -1.090718
 H        -3.281667        -0.932426        -0.296779
 H        -3.086541         0.597528        -1.919227
 H        -2.506008         0.587651         2.101276
 H        -3.602411         1.568389         1.187041
 H        -5.481414        -0.430046         1.228183
 H        -4.172134        -1.319824         2.164409
 H        -5.756582        -0.489406         3.769259
