19
Iteration:   659charge 0 multiplicity 1
 C         1.247993        -0.559738         0.423737
 C        -0.063037        -0.148865        -0.023914
 C        -1.228566         0.145044        -0.328049
 C        -2.689952         0.401270        -0.299380
 O        -3.054439         1.612068        -0.917694
 C        -3.178050         0.500914         1.261175
 C        -4.749002         0.433006         1.465666
 C        -5.028399         0.559812         2.981556
 O        -5.648722        -0.192226         3.735117
 H         1.315617        -0.286980         1.466844
 H         1.281285        -1.666386         0.328781
 H         2.054805        -0.196437        -0.175601
 H        -3.450469        -0.406886        -0.647576
 H        -2.473570         2.378972        -0.670427
 H        -2.948736        -0.489318         1.820592
 H        -2.536949         1.301081         1.719800
 H        -5.210589         1.340708         1.011999
 H        -5.031464        -0.541896         1.121482
 H        -4.505014         1.615818         3.341050
