19
Iteration:   941
 C         1.458291        -0.355012        -0.432976
 C         0.033877        -0.017951         0.023949
 C        -1.139117         0.130797         0.070537
 C        -2.503191         0.216397         0.071857
 O        -3.073672         1.309758        -0.550907
 C        -3.011783         0.239591         1.471163
 C        -4.589063         0.514367         1.586791
 C        -5.168992         0.479039         2.989389
 O        -6.330285         0.259378         3.277834
 H         2.135119        -0.671827         0.387710
 H         1.432401        -1.084620        -1.305564
 H         1.874703         0.557491        -0.897433
 H        -2.786827        -0.804096        -0.183797
 H        -2.371305         1.716137        -1.145470
 H        -2.789049        -0.702330         2.015483
 H        -2.653493         0.853650         2.309607
 H        -4.733069         1.556444         1.402543
 H        -5.260105        -0.068861         0.862093
 H        -4.393350         0.807097         3.734400
