19
Iteration:  2486charge 0 multiplicity 1
 C         1.206377         0.698977        -0.014815
 C        -0.200556         0.259934         0.136533
 C        -1.339671        -0.100080         0.508509
 C        -2.788268        -0.313886         0.052963
 O        -3.255393         0.851553        -0.548404
 C        -3.677928        -0.808798         1.283587
 C        -5.092277        -0.195231         1.397743
 C        -5.126544         0.927498         2.549266
 O        -4.202951         1.325134         3.228694
 H         1.077454         1.840129        -0.270007
 H         1.514196         0.613145         1.059497
 H         1.777008         0.142689        -0.862152
 H        -2.739339        -1.014236        -0.800600
 H        -2.493020         1.258576        -1.030060
 H        -3.689309        -1.906089         1.289237
 H        -3.236067        -0.235493         2.118728
 H        -5.622605         0.353346         0.538922
 H        -5.886875        -1.109476         1.515299
 H        -6.119291         1.376368         2.775237
