19
Iteration:  1443charge 0 multiplicity 1
 C         1.440021        -0.076690        -0.109170
 C         0.020441        -0.164126         0.032102
 C        -1.221313         0.025335         0.118073
 C        -2.685293         0.199500        -0.007023
 O        -3.052435         1.378454        -0.568607
 C        -3.258140         0.238746         1.407125
 C        -4.777172         0.195119         1.356040
 C        -5.214161        -0.031213         2.792530
 O        -5.678935         0.894895         3.494320
 H         1.979463        -1.007326        -0.080343
 H         1.612064         0.433058        -1.139890
 H         1.861439         0.583232         0.646738
 H        -3.036641        -0.723444        -0.613376
 H        -2.622174         1.498944        -1.454161
 H        -2.831887        -0.628808         1.873294
 H        -2.838455         1.074716         1.985284
 H        -5.189797         1.110439         0.910706
 H        -5.111739        -0.753339         0.748240
 H        -4.800877        -0.828807         3.424035
