19
Iteration:  1891
 C         1.289679        -0.048297         0.604772
 C        -0.179320        -0.045021         0.253465
 C        -1.335262        -0.103100        -0.139190
 C        -2.802145         0.217273        -0.189775
 O        -3.144384         0.958825        -1.361592
 C        -3.330946         0.687918         1.195825
 C        -4.765722         0.173715         1.404854
 C        -5.459695         0.454983         2.873759
 O        -4.732247         0.458521         3.842586
 H         1.883674        -0.459963        -0.217344
 H         1.590526         1.024125         0.700995
 H         1.381023        -0.728173         1.441069
 H        -3.193024        -0.775461        -0.422586
 H        -2.426926         1.575739        -1.504067
 H        -2.749449         0.313638         2.072618
 H        -3.547029         1.732028         1.426859
 H        -5.426468         0.601868         0.587579
 H        -4.907113        -0.959479         1.401366
 H        -6.572403         0.692181         2.939574
