19
Iteration:  3557
 C         1.319204         0.391246        -0.434655
 C        -0.032552         0.054809         0.149936
 C        -1.168100        -0.272325         0.264183
 C        -2.641329        -0.128634         0.265479
 O        -3.183765         0.629734        -0.852384
 C        -3.190135         0.085946         1.660564
 C        -4.685669         0.118919         1.425399
 C        -5.565153         0.644079         2.552542
 O        -5.211409         1.159951         3.595872
 H         1.213790         0.186923        -1.479706
 H         1.484249         1.484223        -0.332839
 H         2.188341        -0.070721         0.002293
 H        -3.066378        -1.171447         0.030210
 H        -2.612655         1.430354        -0.786966
 H        -2.660998        -0.670370         2.168635
 H        -2.856396         1.070436         2.022929
 H        -4.996386         0.511750         0.441925
 H        -5.158606        -0.870887         1.371956
 H        -6.655206         0.489918         2.254018
