19
Iteration:  3544
 C         1.368147         0.379285        -0.497966
 C         0.097553        -0.028213         0.158825
 C        -1.091143        -0.159166         0.178395
 C        -2.589469        -0.205571         0.255955
 O        -3.171125         0.702292        -0.760541
 C        -3.265528         0.068740         1.641177
 C        -4.787910         0.038776         1.482914
 C        -5.637081         0.622051         2.569855
 O        -5.240814         1.240838         3.557418
 H         1.368375         0.077874        -1.518435
 H         1.473717         1.484782        -0.467592
 H         2.210373        -0.109597        -0.097648
 H        -2.946281        -1.248872        -0.157557
 H        -2.897289         1.636295        -0.724855
 H        -3.023437        -0.574532         2.446079
 H        -2.986315         1.048636         2.039718
 H        -4.924224         0.606685         0.505218
 H        -5.159454        -1.033831         1.279758
 H        -6.664369         0.189777         2.663903
