19
Iteration:  4683
 C         1.329201         0.113982         0.504807
 C        -0.067947         0.248145         0.074714
 C        -1.290371         0.283492         0.077112
 C        -2.751465         0.056497         0.161318
 O        -3.432014        -0.010458        -1.025141
 C        -3.497547         1.104084         0.841792
 C        -5.068326         0.650788         1.383304
 C        -5.222107         0.415490         2.799543
 O        -4.382334         0.199213         3.646877
 H         1.394186        -0.950064         0.855229
 H         2.033675         0.239592        -0.293308
 H         1.692107         0.799253         1.348925
 H        -2.937631        -0.851784         0.763452
 H        -2.889910        -0.166163        -1.805986
 H        -3.130994         1.476356         1.862576
 H        -3.742853         2.090177         0.416010
 H        -5.829011         1.429706         1.101192
 H        -5.355488        -0.223762         0.777501
 H        -6.366845         0.383794         3.086352
