19
Iteration:  2805charge 0 multiplicity 1
 C         1.373197        -0.000136        -0.247830
 C        -0.102655        -0.065248        -0.097253
 C        -1.260833        -0.196701         0.219902
 C        -2.686187         0.020500         0.121698
 O        -2.897356         0.721806        -1.163176
 C        -3.424060         0.778972         1.293006
 C        -4.579092        -0.101110         1.820947
 C        -5.275392         0.208353         3.131968
 O        -5.627109         1.313364         3.526945
 H         1.812829         0.654403         0.510592
 H         1.905709        -0.896094        -0.231632
 H         1.653098         0.305005        -1.239494
 H        -3.189724        -0.917822        -0.061744
 H        -2.178946         1.367837        -1.381745
 H        -2.638601         0.961847         2.044160
 H        -3.684996         1.793368         1.015514
 H        -5.392904        -0.111048         1.045414
 H        -4.150016        -1.128930         1.825656
 H        -5.308242        -0.563072         3.915393
