19
Iteration:  4876charge 0 multiplicity 1
 C         1.227421         0.334409         0.591048
 C        -0.172427         0.210202         0.348072
 C        -1.379762         0.165568         0.104822
 C        -2.882127        -0.004544         0.193804
 O        -3.628835        -0.316825        -0.928417
 C        -3.390953         1.281366         0.945894
 C        -4.924037         0.895873         1.174142
 C        -5.038951         0.248783         2.583764
 O        -4.223220         0.217375         3.492725
 H         1.654604        -0.480472        -0.044339
 H         1.741219         1.322481         0.386178
 H         1.641346        -0.217512         1.472207
 H        -2.906912        -0.840222         0.924800
 H        -3.790980         0.505855        -1.382668
 H        -2.780241         1.427212         1.842280
 H        -3.082690         2.198107         0.333295
 H        -5.645669         1.763574         1.166434
 H        -5.415892         0.205715         0.406807
 H        -6.041044        -0.171274         2.739341
