19
Iteration:  4982
 C         1.295460         0.405137         0.142470
 C        -0.190906         0.250790         0.638466
 C        -1.399634         0.108207         0.373714
 C        -2.846998         0.035573         0.401266
 O        -3.308764        -0.528876        -0.916965
 C        -3.505162         1.312538         0.705748
 C        -4.933365         1.223200         1.390989
 C        -5.085167         0.562337         2.634859
 O        -4.456929        -0.252081         3.256044
 H         1.275378         0.631841        -0.949955
 H         1.777338         1.327748         0.565919
 H         1.936435        -0.360636         0.371575
 H        -2.883038        -0.663613         1.263808
 H        -3.481921        -1.450524        -0.729259
 H        -2.851860         1.797858         1.440944
 H        -3.585647         1.921123        -0.245231
 H        -5.302358         2.268644         1.549387
 H        -5.753064         0.814845         0.825387
 H        -5.878000         1.114790         3.204337
