19
Iteration:  1913
 C         1.312883        -0.137100         0.500449
 C        -0.062878        -0.121495         0.135442
 C        -1.245485         0.186236        -0.023623
 C        -2.771508         0.164720        -0.194569
 O        -3.158233         0.950082        -1.340701
 C        -3.347304         0.629278         1.172376
 C        -4.830084         0.194249         1.492908
 C        -5.394493         0.344274         2.822466
 O        -4.928366         0.575626         3.905277
 H         1.988994        -0.520785        -0.277130
 H         1.595365         0.924939         0.693688
 H         1.339541        -0.869186         1.311778
 H        -3.052582        -0.851414        -0.537244
 H        -2.451728         1.648964        -1.374233
 H        -2.699988         0.345243         2.036509
 H        -3.270879         1.763736         1.197411
 H        -5.716105         0.386207         0.824083
 H        -4.773999        -0.950306         1.621981
 H        -6.506875         0.340247         2.773357
