19
Iteration:  1648
 C         1.416281         0.076587         0.009598
 C        -0.012569         0.085755         0.243275
 C        -1.246982        -0.064017         0.186984
 C        -2.721370        -0.040768        -0.112646
 O        -2.943084         1.143321        -0.906382
 C        -3.440518         0.309790         1.353388
 C        -4.902544         0.255698         1.363017
 C        -5.544555         0.632550         2.681774
 O        -5.065171         0.357799         3.755572
 H         1.613179        -0.839561        -0.517929
 H         1.681955         1.002821        -0.604544
 H         1.877490         0.182036         0.975081
 H        -3.065416        -1.017486        -0.413172
 H        -2.300586         1.218286        -1.676686
 H        -3.002795        -0.371274         2.102659
 H        -2.960842         1.197118         1.677160
 H        -5.477074         0.862123         0.647433
 H        -5.252932        -0.749274         1.222021
 H        -6.553698         1.177594         2.486021
