19
Iteration:  2890charge 0 multiplicity 1
 C         1.343015         0.080561         0.003053
 C        -0.109218        -0.062140         0.004749
 C        -1.337406        -0.021845         0.050207
 C        -2.743494        -0.010811        -0.028400
 O        -3.396435         0.936457        -0.832742
 C        -3.169397         0.361873         1.438072
 C        -4.522644        -0.434208         1.872031
 C        -5.298459         0.335834         2.954800
 O        -5.150013         1.524992         3.086300
 H         1.678580         0.441946         1.016161
 H         1.751105        -0.994207        -0.049665
 H         1.721630         0.861656        -0.723655
 H        -3.142055        -1.060753        -0.288890
 H        -3.181344         0.922252        -1.782326
 H        -2.370370         0.334007         2.200432
 H        -3.438436         1.398316         1.190680
 H        -5.084275        -0.774780         1.002302
 H        -4.242754        -1.461648         2.382039
 H        -5.914109        -0.256540         3.623922
