19
Iteration:  2473charge 0 multiplicity 1
 C         1.141362         0.696243         0.081979
 C        -0.221146         0.211609         0.179437
 C        -1.377877        -0.030743         0.426957
 C        -2.742325        -0.339665         0.052506
 O        -3.347587         0.887416        -0.559368
 C        -3.635774        -0.753925         1.226692
 C        -5.065651        -0.216062         1.458097
 C        -5.139716         0.930277         2.550293
 O        -4.168516         1.295568         3.186350
 H         1.285260         1.782103        -0.342669
 H         1.871715         0.580499         0.888368
 H         1.762543         0.006865        -0.649869
 H        -2.715227        -1.199182        -0.638557
 H        -2.641602         1.366038        -0.991197
 H        -3.593120        -1.868391         1.280037
 H        -3.003047        -0.601238         2.101456
 H        -5.356794         0.242724         0.510180
 H        -5.801328        -0.969256         1.891653
 H        -6.044178         1.529445         2.389976
