19
Iteration:  3362
 C         1.196947        -0.197823         0.171868
 C        -0.140593         0.218562        -0.194311
 C        -1.324982         0.096150        -0.226632
 C        -2.847609         0.139077         0.004645
 O        -3.371740         1.307473        -0.559312
 C        -3.028971         0.020553         1.558097
 C        -4.283000        -0.649702         2.113403
 C        -5.364963         0.295871         2.605795
 O        -5.186348         1.450865         2.918444
 H         1.212254        -1.181929        -0.244071
 H         1.881925         0.307326        -0.495273
 H         1.408188         0.012372         1.236729
 H        -3.467047        -0.644549        -0.549497
 H        -2.967826         2.196919        -0.491525
 H        -2.176145        -0.447685         2.087999
 H        -3.086988         1.066674         1.943217
 H        -4.836353        -1.029777         1.176017
 H        -4.139655        -1.544564         2.648801
 H        -6.395050        -0.145668         2.700609
