19
Iteration:   552
 C         1.338368        -0.441760         0.048434
 C        -0.083147        -0.248343        -0.100967
 C        -1.220094         0.116551        -0.007498
 C        -2.597291         0.308258        -0.089754
 O        -2.949168         1.452494        -0.800334
 C        -3.189416         0.663823         1.428115
 C        -4.715496         0.677996         1.533618
 C        -5.099543         0.543201         2.980622
 O        -5.823272        -0.276030         3.489430
 H         1.696003        -0.007571         0.987542
 H         1.610303        -1.618853         0.123494
 H         1.936773        -0.003034        -0.766442
 H        -3.292076        -0.463733        -0.399087
 H        -3.071325         1.415709        -1.774915
 H        -2.898342        -0.124450         2.129309
 H        -2.632512         1.703650         1.578231
 H        -5.267641         1.534362         1.006643
 H        -5.300169        -0.205092         1.025731
 H        -4.644879         1.245751         3.728228
