19
Iteration:   928
 C         1.490883        -0.332007        -0.433662
 C         0.136361        -0.144960        -0.028474
 C        -1.021892         0.194954         0.068807
 C        -2.584509         0.201822         0.129175
 O        -3.096294         1.373180        -0.628099
 C        -3.151678         0.190832         1.607262
 C        -4.603618         0.519242         1.561991
 C        -5.194811         0.533272         2.958303
 O        -6.304711         0.213913         3.345557
 H         2.180783        -0.676645         0.404192
 H         1.541923        -1.138127        -1.131094
 H         1.945527         0.597307        -0.840725
 H        -2.974970        -0.530695        -0.493774
 H        -2.392482         1.724014        -1.155207
 H        -2.917838        -0.815401         1.932186
 H        -2.491173         1.015284         1.924889
 H        -4.653814         1.526858         1.121398
 H        -5.202604        -0.189554         0.816869
 H        -4.516551         0.886175         3.765774
