19
Iteration:   531
 C         1.409111        -0.490232        -0.063435
 C        -0.043901        -0.160225        -0.073274
 C        -1.218286         0.174340        -0.026684
 C        -2.653525         0.383409         0.088793
 O        -3.023420         1.418435        -0.886322
 C        -3.142228         0.562260         1.532086
 C        -4.641622         0.632461         1.555379
 C        -5.187780         0.634752         3.001361
 O        -5.864041        -0.287660         3.391970
 H         1.880803        -0.121917         0.835289
 H         1.464869        -1.670884         0.003938
 H         2.003212        -0.125552        -0.906957
 H        -3.193371        -0.513818        -0.111313
 H        -2.714339         1.030442        -1.705425
 H        -2.834053        -0.288660         2.069149
 H        -2.491400         1.472963         1.788259
 H        -4.746243         1.722956         1.203963
 H        -5.349421        -0.150932         0.996810
 H        -5.111381         1.452710         3.735690
