19
Iteration:  3838
 C         1.206769         0.148407         0.350032
 C        -0.249423         0.051008         0.385556
 C        -1.459192         0.277946         0.507474
 C        -2.842872         0.045318         0.309080
 O        -3.222343        -0.289626        -1.011361
 C        -3.765039         1.308549         0.770042
 C        -5.169744         0.959057         1.309022
 C        -5.036894         0.356601         2.707952
 O        -4.001342         0.281029         3.298355
 H         1.408137         1.030186        -0.242165
 H         1.566153         0.285984         1.446056
 H         1.699193        -0.740844         0.006500
 H        -3.146001        -0.875214         0.920547
 H        -2.710633        -1.036947        -1.388761
 H        -3.250374         1.548684         1.719360
 H        -3.614508         2.011649        -0.117381
 H        -5.844947         1.851634         1.358396
 H        -5.703890         0.123652         0.705872
 H        -6.000443        -0.108910         3.099861
