19
Iteration:  2241
 C         1.338298         0.273316         0.097210
 C        -0.155328         0.138449         0.233167
 C        -1.369952         0.144089         0.036282
 C        -2.859733         0.010361         0.145521
 O        -3.537680         1.154347        -0.239278
 C        -3.278149        -0.688308         1.448485
 C        -4.814723        -0.589655         1.623716
 C        -5.244132         0.690705         2.363644
 O        -4.478242         1.566926         2.733749
 H         1.566459         0.800780        -0.848575
 H         1.802535         0.677565         0.970093
 H         1.602941        -0.804823         0.025349
 H        -3.096255        -0.783427        -0.557370
 H        -3.440245         1.748168         0.542094
 H        -2.841667        -1.666743         1.540939
 H        -2.698793        -0.222053         2.242406
 H        -5.304837        -0.622627         0.619824
 H        -5.350593        -1.506729         2.104920
 H        -6.375269         0.886831         2.236007
