19
Iteration:  1713charge 0 multiplicity 1
 C         1.197527         0.191036         0.607688
 C        -0.058317        -0.073828         0.026369
 C        -1.252795        -0.015110        -0.171073
 C        -2.685792        -0.060267        -0.180133
 O        -3.393955         1.031912        -0.916671
 C        -3.213279         0.109725         1.308703
 C        -4.712170         0.502505         1.304194
 C        -5.308088         0.795264         2.692457
 O        -4.922823         0.272916         3.744101
 H         1.988703        -0.475198         0.263311
 H         1.476266         1.288433         0.387493
 H         1.116080         0.233063         1.695170
 H        -3.027815        -0.991991        -0.639690
 H        -3.003663         1.074567        -1.788031
 H        -3.040451        -0.835247         1.838254
 H        -2.738648         0.896088         1.886810
 H        -4.741631         1.215061         0.468159
 H        -5.389281        -0.362515         0.948057
 H        -6.179872         1.427395         2.818604
