19
Iteration:   814
 C         1.425646        -0.256939        -0.093428
 C        -0.084364        -0.397768         0.006248
 C        -1.241760        -0.029908        -0.013266
 C        -2.696081         0.283447        -0.061039
 O        -2.810946         1.654908        -0.449560
 C        -3.288232         0.280649         1.336969
 C        -4.845087         0.290859         1.389910
 C        -5.212998         0.737735         2.757081
 O        -5.671651         0.020032         3.623886
 H         1.813230        -0.081211         0.856736
 H         1.936339        -1.133295        -0.574177
 H         1.530906         0.651569        -0.648549
 H        -3.210107        -0.436376        -0.628301
 H        -2.574317         1.898704        -1.333718
 H        -2.902606        -0.544122         1.975676
 H        -3.039586         1.295077         1.672380
 H        -5.131232         1.147553         0.654642
 H        -5.164662        -0.558423         0.866517
 H        -5.239096         1.804849         2.696980
