19
Iteration:   101
 C         1.388134         0.086791         0.060486
 C        -0.043279        -0.128535        -0.082810
 C        -1.257299         0.013942        -0.105715
 C        -2.745338         0.078036        -0.124132
 O        -2.932844         1.409245        -0.442434
 C        -3.204890        -0.276106         1.389765
 C        -4.693044         0.180008         1.456908
 C        -4.951025         0.812048         2.762482
 O        -5.877052         0.475745         3.475673
 H         1.625514         0.581844         1.053180
 H         1.951807        -0.749234         0.024742
 H         1.773636         0.777243        -0.722694
 H        -3.306787        -0.535366        -0.733726
 H        -3.805471         1.590859        -0.848952
 H        -3.347331        -1.332767         1.417259
 H        -2.486168         0.218267         2.009086
 H        -4.807815         0.967191         0.761434
 H        -5.376176        -0.678526         1.206689
 H        -4.204021         1.561411         3.199507
