19
Iteration:  3790
 C         1.225575         0.263314         0.400422
 C        -0.224015         0.272287         0.390427
 C        -1.431100        -0.038952         0.338743
 C        -2.841203        -0.093128         0.130737
 O        -3.309733        -0.147340        -1.176867
 C        -3.515745         1.068734         0.723872
 C        -4.941727         0.936596         1.342083
 C        -5.087743         0.388809         2.755867
 O        -4.301839         0.423440         3.693856
 H         1.638431         0.863089        -0.441142
 H         1.642650         0.500812         1.323027
 H         1.470938        -0.827658         0.283560
 H        -3.325499        -0.912569         0.658192
 H        -3.018020        -0.968317        -1.600710
 H        -2.814773         1.395761         1.585584
 H        -3.773504         1.859055        -0.011222
 H        -5.611933         1.872798         1.275707
 H        -5.470040        -0.077400         0.839505
 H        -6.141734         0.026600         3.007489
