19
Iteration:  2455charge 0 multiplicity 1
 C         1.176499         0.606427         0.123997
 C        -0.188285         0.255203         0.342821
 C        -1.396948         0.002872         0.200886
 C        -2.836891        -0.220021         0.005095
 O        -3.472209         0.865431        -0.548642
 C        -3.566777        -0.822812         1.343536
 C        -4.924341        -0.211887         1.459798
 C        -5.055947         0.971323         2.404065
 O        -4.170866         1.261606         3.168336
 H         1.240154         1.656994        -0.161037
 H         1.693445         0.771558         1.097590
 H         1.777306         0.085180        -0.615311
 H        -2.924877        -1.116648        -0.655143
 H        -2.711375         1.357628        -0.879166
 H        -3.774383        -1.896838         1.263685
 H        -3.149073        -0.764666         2.379067
 H        -5.591356         0.104570         0.601826
 H        -5.665735        -0.903909         2.067913
 H        -6.074811         1.470384         2.596770
