19
Iteration:  4813
 C         1.152638         0.380856         0.398587
 C        -0.296193        -0.009282         0.270885
 C        -1.531487         0.101130         0.375147
 C        -2.926170         0.046902         0.142758
 O        -3.084221        -0.254261        -1.271629
 C        -3.583391         1.204606         0.908013
 C        -5.032757         1.031476         1.472600
 C        -4.992157         0.161394         2.662092
 O        -4.277064         0.328229         3.642171
 H         1.569800        -0.484324        -0.156936
 H         1.432186         1.273811        -0.150222
 H         1.490771         0.423242         1.532399
 H        -3.501457        -0.866750         0.583447
 H        -2.164862        -0.221942        -1.521701
 H        -3.057576         1.422557         1.907120
 H        -3.574169         2.101430         0.247708
 H        -5.456498         2.010391         1.729206
 H        -5.795709         0.671336         0.692853
 H        -5.629200        -0.812084         2.617964
