19
Iteration:   858
 C         1.392221        -0.272453        -0.213862
 C        -0.051625        -0.070001        -0.109354
 C        -1.254734        -0.133743        -0.098380
 C        -2.668917         0.258715         0.082507
 O        -2.793966         1.528605        -0.495121
 C        -3.143215         0.269909         1.550748
 C        -4.642268         0.349421         1.493223
 C        -5.299329         0.771099         2.764701
 O        -5.935586         0.017316         3.488077
 H         1.819858        -0.374566         0.745405
 H         1.535445        -1.259033        -0.715474
 H         1.891049         0.534255        -0.720295
 H        -3.251784        -0.450449        -0.439731
 H        -2.158164         1.465991        -1.196441
 H        -2.881860        -0.709715         1.948332
 H        -2.813534         1.171252         2.045193
 H        -5.027292         1.171168         0.744461
 H        -5.241866        -0.486361         1.173166
 H        -5.210011         1.873535         3.079569
