19
Iteration:  4205charge 0 multiplicity 1
 C         1.315555         0.287394        -0.557215
 C        -0.079793         0.490708         0.034848
 C        -1.263151         0.537682         0.365334
 C        -2.529889        -0.039768         0.790293
 O        -3.326865        -0.702869        -0.168018
 C        -3.177027         1.099589         1.564649
 C        -4.621029         1.379733         1.290506
 C        -5.565073         0.423816         2.151516
 O        -5.149048        -0.207964         3.090837
 H         2.044902         0.668140         0.180787
 H         1.609431        -0.772919        -0.709274
 H         1.454814         0.661404        -1.609577
 H        -2.291112        -0.939918         1.485693
 H        -3.186757        -0.217525        -0.982615
 H        -2.938457         0.909250         2.633014
 H        -2.742289         2.061918         1.359467
 H        -4.826086         2.466292         1.388838
 H        -4.885347         1.072670         0.177116
 H        -6.594055         0.201490         1.824195
