19
Iteration:  1346charge 0 multiplicity 1
 C         1.318160         0.004042         0.360686
 C        -0.089016        -0.078643        -0.185268
 C        -1.281256         0.001153        -0.326892
 C        -2.693505         0.135626        -0.178722
 O        -3.164199         1.470579        -0.475033
 C        -3.220503        -0.283187         1.206301
 C        -4.641761         0.118108         1.477050
 C        -4.935779         0.206063         2.939359
 O        -5.699862         1.042051         3.429892
 H         1.669442        -0.898188         0.833237
 H         2.048169         0.293770        -0.471868
 H         1.302039         0.843546         1.060560
 H        -3.235292        -0.413974        -0.961816
 H        -2.470032         2.071815        -0.090577
 H        -2.954034        -1.349028         1.383010
 H        -2.588118         0.066162         2.011652
 H        -4.916439         1.005083         0.951897
 H        -5.179543        -0.688108         1.074722
 H        -4.359292        -0.592294         3.588089
