19
Iteration:  4584
 C         1.354839         0.390214         0.172958
 C        -0.115674         0.304221         0.060708
 C        -1.244676        -0.170760         0.322892
 C        -2.807447        -0.090407         0.323478
 O        -3.430484        -0.121431        -0.986817
 C        -3.364113         1.050797         1.199636
 C        -4.980741         1.058494         1.307682
 C        -5.294343         0.281251         2.580989
 O        -4.542289         0.191667         3.541465
 H         1.583209        -0.306166         0.999411
 H         1.783326         0.009136        -0.720427
 H         1.829710         1.434623         0.254910
 H        -3.017179        -1.031072         0.911502
 H        -3.273455         0.686719        -1.479259
 H        -3.063722         1.020916         2.292737
 H        -2.836739         2.005734         0.924457
 H        -5.302528         2.094813         1.611744
 H        -5.375491         0.962266         0.361270
 H        -6.332253        -0.188649         2.522003
