19
Iteration:  4327
 C         1.121146         0.339795        -0.536462
 C        -0.054096         0.308142         0.312522
 C        -1.203932         0.152505         0.648302
 C        -2.654656         0.005983         0.891025
 O        -3.535245        -0.475936        -0.138467
 C        -3.209024         1.372839         1.243334
 C        -4.805748         1.619289         1.539069
 C        -5.271432         0.294946         1.923560
 O        -4.746589        -0.411190         2.803389
 H         2.098874         0.636987        -0.148709
 H         1.123469        -0.612256        -1.196844
 H         0.746047         1.053987        -1.295030
 H        -2.494283        -0.703975         1.782703
 H        -3.639158        -1.429058        -0.286234
 H        -2.613158         1.721454         2.109244
 H        -2.880589         2.006150         0.383013
 H        -4.760406         2.508826         2.182621
 H        -5.258687         1.852328         0.543101
 H        -5.882947        -0.279288         1.222429
