19
Iteration:  4250charge 0 multiplicity 1
 C         1.314931         0.369533        -0.558986
 C        -0.031042         0.267653        -0.109730
 C        -1.122031         0.150839         0.412828
 C        -2.548699         0.118184         0.968457
 O        -3.406374        -0.427514        -0.033224
 C        -3.174834         1.393643         1.439480
 C        -4.721146         1.341235         1.360557
 C        -5.560460         0.236022         2.016645
 O        -5.124054        -0.310711         3.027974
 H         2.059425         0.648621         0.191166
 H         1.583367        -0.694251        -0.881362
 H         1.312469         0.997275        -1.468571
 H        -2.356227        -0.649163         1.798260
 H        -2.820660        -0.719530        -0.737090
 H        -2.757993         1.539481         2.442770
 H        -2.763489         2.171750         0.784710
 H        -5.105832         2.256180         1.894921
 H        -4.967481         1.505912         0.252743
 H        -6.592244        -0.086147         1.647159
