19
Iteration:  1850
 C         1.154005         0.111035         0.688118
 C        -0.248139        -0.029055         0.314210
 C        -1.430487        -0.110507         0.036626
 C        -2.909493         0.024759        -0.233722
 O        -3.116527         0.924811        -1.214343
 C        -3.365374         0.553809         1.113050
 C        -4.965186         0.418539         1.333026
 C        -5.253520         0.580928         2.804975
 O        -4.429597         0.287085         3.668400
 H         1.870809        -0.409250        -0.037317
 H         1.506345         1.116420         0.861797
 H         1.251170        -0.407067         1.711599
 H        -3.506758        -0.877204        -0.403128
 H        -2.437488         1.647668        -1.239967
 H        -2.766925        -0.054114         1.872279
 H        -3.073434         1.607189         0.882207
 H        -5.471081         0.867076         0.450178
 H        -5.089225        -0.652974         1.147529
 H        -6.315936         0.913280         2.981992
