19
Iteration:  4030charge 0 multiplicity 1
 C         1.257813         0.664896        -0.026414
 C        -0.080754         0.247626         0.232675
 C        -1.260103        -0.163654         0.429544
 C        -2.727446        -0.130067         0.539337
 O        -3.442764        -0.432614        -0.746134
 C        -3.272086         1.151170         1.192366
 C        -4.849874         1.279913         1.195718
 C        -5.307066         0.539345         2.479357
 O        -4.635331        -0.113647         3.266476
 H         1.245444         1.787588         0.078836
 H         2.015947         0.255116         0.649788
 H         1.551273         0.431703        -1.104520
 H        -3.011281        -0.917411         1.298503
 H        -3.817831        -1.309507        -0.704135
 H        -2.873463         1.132903         2.230204
 H        -2.927223         2.053267         0.680114
 H        -5.293937         2.308450         1.342783
 H        -5.346418         0.958527         0.235308
 H        -6.409636         0.652769         2.631359
