19
Iteration:   699charge 0 multiplicity 1
 C         1.272797        -0.586651         0.353932
 C        -0.134454        -0.201893         0.012788
 C        -1.248944         0.221536        -0.125269
 C        -2.728347         0.420245        -0.114178
 O        -3.245347         1.621509        -0.821397
 C        -3.178104         0.307080         1.268718
 C        -4.647518         0.444841         1.381545
 C        -5.006931         0.693584         2.793456
 O        -5.483589        -0.115259         3.568723
 H         1.559704        -0.422798         1.468015
 H         1.391098        -1.615979         0.189619
 H         2.085468        -0.094211        -0.273582
 H        -3.064408        -0.334258        -0.750694
 H        -3.007000         2.298108        -0.193234
 H        -2.780969        -0.705180         1.561612
 H        -2.593045         0.895454         1.988520
 H        -5.284085         1.103902         0.674570
 H        -4.983418        -0.721258         1.311343
 H        -4.627968         1.663005         3.378621
