19
Iteration:  2657
 C         1.370558         0.015237         0.098758
 C        -0.066772         0.031521         0.101649
 C        -1.231842         0.163625        -0.235826
 C        -2.663273         0.016173        -0.017478
 O        -3.578471         0.783777        -0.924359
 C        -3.096588         0.254329         1.543698
 C        -4.549971        -0.288209         1.711487
 C        -5.419401         0.514828         2.643598
 O        -5.078557         1.284435         3.511010
 H         1.637470         0.977136         0.467604
 H         1.718579        -0.740212         0.777539
 H         1.868699        -0.232068        -0.844986
 H        -2.918200        -1.057594        -0.179015
 H        -3.251446         1.697043        -0.838814
 H        -2.507789        -0.384955         2.283270
 H        -2.991207         1.376092         1.711505
 H        -5.143399        -0.169809         0.702794
 H        -4.510085        -1.456040         1.833883
 H        -6.518004         0.182207         2.715790
