19
Iteration:  3091charge 0 multiplicity 1
 C         1.036111         0.788518        -0.304167
 C        -0.151618        -0.000585         0.016835
 C        -1.271137        -0.386904         0.177514
 C        -2.734305        -0.318553         0.254872
 O        -3.269707         1.084980         0.220876
 C        -3.242462        -0.847354         1.631309
 C        -4.767789        -0.545967         1.762481
 C        -5.225074         0.844012         2.143662
 O        -4.709751         1.859569         2.577888
 H         1.881797         0.413432         0.432657
 H         1.281743         0.521055        -1.330594
 H         0.841207         1.900804        -0.270775
 H        -3.241381        -0.809047        -0.654970
 H        -3.510133         1.117284        -0.709763
 H        -2.663133        -1.780602         1.795477
 H        -2.796939        -0.111254         2.342270
 H        -5.378434        -0.853286         0.930987
 H        -5.169866        -0.979995         2.665063
 H        -6.286402         0.856506         2.009117
