19
Iteration:  3700charge 0 multiplicity 1
 C         1.199523         0.354738         0.397814
 C        -0.153356         0.334825         0.076681
 C        -1.328009        -0.058492         0.049766
 C        -2.706812        -0.288078         0.138796
 O        -3.510437        -0.030312        -1.034365
 C        -3.220433         0.682344         1.170311
 C        -4.837401         0.684010         1.287672
 C        -5.293552         0.677153         2.706448
 O        -4.579937         0.621081         3.711969
 H         1.917547         0.744026        -0.297636
 H         1.465574         1.051930         1.134218
 H         1.691498        -0.533854         0.771884
 H        -2.788734        -1.331889         0.491500
 H        -3.090636        -0.095313        -1.905089
 H        -2.921434         0.306103         2.130967
 H        -2.755081         1.627781         1.009219
 H        -5.119271         1.463780         0.568296
 H        -5.461184        -0.170931         0.690026
 H        -6.412654         0.575103         2.811688
