19
Iteration:  3508charge 0 multiplicity 1
 C         1.477944         0.220104        -0.506934
 C         0.080524         0.072876        -0.231941
 C        -1.028618        -0.038802         0.325396
 C        -2.592871        -0.104308         0.299015
 O        -3.090990         0.830518        -0.685328
 C        -3.379430        -0.030716         1.707192
 C        -4.892974        -0.161101         1.513464
 C        -5.653211         0.485652         2.680434
 O        -5.291794         1.418483         3.392969
 H         1.786284        -0.248487        -1.470933
 H         1.824813         1.242860        -0.454776
 H         1.962179        -0.276106         0.367638
 H        -2.628785        -1.090924        -0.257680
 H        -2.849007         1.661439        -0.231240
 H        -2.972463        -0.724975         2.498449
 H        -3.104982         0.997645         1.961690
 H        -5.281798         0.372344         0.570396
 H        -5.323805        -1.265287         1.329122
 H        -6.432645        -0.203010         3.102550
