19
Iteration:  4718
 C         1.254409         0.171646         0.355971
 C        -0.241573         0.137448         0.373186
 C        -1.433415         0.273296         0.300456
 C        -2.849442         0.046927         0.175062
 O        -3.229616         0.021226        -1.236407
 C        -3.575924         1.092784         1.083328
 C        -5.099720         0.703726         1.300257
 C        -5.161833         0.352603         2.758472
 O        -4.194353         0.322963         3.499718
 H         1.596223        -0.881323         0.391038
 H         1.522828         0.568023        -0.658478
 H         1.691061         0.723272         1.185055
 H        -3.012455        -0.885122         0.738655
 H        -2.850498        -0.803962        -1.568499
 H        -2.965988         0.813687         1.966502
 H        -3.323808         2.081881         0.700945
 H        -5.919008         1.407121         0.981462
 H        -5.450081        -0.216863         0.857125
 H        -6.195651         0.073785         3.200124
