19
Iteration:  3478charge 0 multiplicity 1
 C         1.359389         0.036311        -0.421964
 C        -0.003192         0.200791        -0.105810
 C        -1.182804         0.044540         0.180922
 C        -2.658080         0.013899         0.266825
 O        -3.098603         0.944448        -0.620195
 C        -3.208225        -0.050559         1.701250
 C        -4.754340        -0.259793         1.662753
 C        -5.573266         0.333503         2.735745
 O        -5.326295         1.463329         3.135444
 H         1.517314        -0.615590        -1.253436
 H         1.959082         0.953214        -0.595069
 H         1.864293        -0.386571         0.406992
 H        -2.981062        -1.053991        -0.151669
 H        -2.506439         1.712209        -0.505380
 H        -2.621763        -0.816288         2.142269
 H        -2.919133         0.932025         2.101621
 H        -5.097182         0.453542         0.923544
 H        -4.827960        -1.377775         1.476860
 H        -6.358961        -0.365904         3.145817
