19
Iteration:  3773
 C         1.215765         0.290646         0.423518
 C        -0.180723         0.137710         0.375477
 C        -1.393824         0.001059         0.213912
 C        -2.872104        -0.203200         0.157055
 O        -3.424476        -0.136594        -1.272918
 C        -3.415669         1.190470         0.831769
 C        -4.815785         0.788162         1.330672
 C        -5.170520         0.471705         2.787334
 O        -4.385178         0.444086         3.765342
 H         1.560288         0.967648        -0.364717
 H         1.593123         0.902063         1.342806
 H         1.899530        -0.556044         0.373705
 H        -3.130144        -1.169666         0.685436
 H        -2.839140        -0.757274        -1.739777
 H        -2.813408         1.639402         1.616062
 H        -3.658934         1.925614         0.025181
 H        -5.612744         1.587862         1.258709
 H        -5.236629         0.050091         0.766181
 H        -6.203026         0.087306         2.898443
