19
Iteration:   642charge 0 multiplicity 1
 C         1.240408        -0.551209         0.402693
 C        -0.105693        -0.095924        -0.008778
 C        -1.312286         0.011588        -0.236621
 C        -2.736597         0.496488        -0.212808
 O        -3.001871         1.669168        -1.058596
 C        -3.160427         0.448114         1.243490
 C        -4.662707         0.429571         1.570195
 C        -5.009454         0.587951         3.054037
 O        -5.687523        -0.225227         3.668917
 H         1.468725        -0.218796         1.438196
 H         1.354520        -1.672516         0.330746
 H         2.019593        -0.095776        -0.276606
 H        -3.146322        -0.302954        -0.752552
 H        -2.146106         2.086113        -1.337471
 H        -2.737987        -0.460069         1.560739
 H        -2.783162         1.285481         1.883363
 H        -5.286971         1.179648         1.063963
 H        -5.198933        -0.551083         1.309859
 H        -4.578904         1.474096         3.434926
