19
Iteration:  3193charge 0 multiplicity 1
 C         1.243468         0.484189        -0.556842
 C        -0.029340         0.081707         0.192475
 C        -1.217304        -0.037327         0.353696
 C        -2.704610        -0.118795         0.434224
 O        -3.397661         1.067980        -0.077290
 C        -3.313470        -0.660779         1.674142
 C        -4.854497        -0.655963         1.758085
 C        -5.300457         0.770299         2.068678
 O        -4.721286         1.655162         2.686170
 H         2.028710        -0.274394        -0.530800
 H         0.853857         0.561557        -1.598917
 H         1.582065         1.451827        -0.235679
 H        -3.062690        -0.759818        -0.423236
 H        -3.726516         1.726136         0.583356
 H        -2.780551        -1.635131         1.863312
 H        -2.903059         0.042270         2.444692
 H        -5.323939        -0.927798         0.781046
 H        -5.219467        -1.294247         2.558165
 H        -6.421425         0.964713         1.898502
