19
Iteration:  3602charge 0 multiplicity 1
 C         1.404604         0.492435        -0.138300
 C        -0.080049         0.192092        -0.118760
 C        -1.161611        -0.271614         0.120765
 C        -2.630764        -0.380732         0.220873
 O        -3.132814         0.412934        -0.877328
 C        -3.324860         0.254680         1.468378
 C        -4.903358         0.268198         1.387082
 C        -5.505582         0.900157         2.631800
 O        -5.076497         0.909959         3.794280
 H         1.821787         0.536219        -1.150249
 H         1.610765         1.447690         0.329004
 H         1.968716        -0.231648         0.488259
 H        -3.106874        -1.384204         0.094233
 H        -2.384502         0.704926        -1.426313
 H        -3.162169        -0.389896         2.367140
 H        -2.870101         1.246970         1.632022
 H        -5.334469         0.718379         0.481129
 H        -5.242574        -0.796805         1.422858
 H        -6.536447         1.261115         2.414082
