19
Iteration:  4045charge 0 multiplicity 1
 C         1.215256         0.722486        -0.128845
 C        -0.135364         0.196405         0.158332
 C        -1.343400        -0.065585         0.489131
 C        -2.805688        -0.279676         0.595810
 O        -3.247026        -0.437673        -0.766964
 C        -3.297739         1.119910         1.327339
 C        -4.719129         1.267802         1.332986
 C        -5.434782         0.566678         2.414817
 O        -4.661171        -0.050088         3.179556
 H         1.326522         1.785826         0.070372
 H         1.979677         0.138613         0.511360
 H         1.559446         0.508457        -1.128158
 H        -3.044329        -1.191432         1.112513
 H        -3.693802        -1.297707        -0.710632
 H        -2.885979         1.238525         2.358247
 H        -2.794950         1.955876         0.725398
 H        -4.989114         2.340453         1.334547
 H        -5.134604         0.888699         0.423955
 H        -6.534505         0.786875         2.599514
