19
Iteration:  2411
 C         1.138728         0.483784         0.484852
 C        -0.319359         0.314496         0.114138
 C        -1.520119         0.058511         0.055845
 C        -2.905290        -0.241916        -0.057260
 O        -3.655073         0.897985        -0.428757
 C        -3.368848        -0.787609         1.284690
 C        -4.808527        -0.351680         1.545299
 C        -4.893597         0.980310         2.250301
 O        -4.129238         1.330405         3.118922
 H         1.530987         1.450289         0.181933
 H         1.167252         0.530826         1.566892
 H         1.582784        -0.261121        -0.109402
 H        -3.037745        -0.822743        -1.003409
 H        -3.276315         1.735166        -0.126801
 H        -3.183379        -1.876232         1.355121
 H        -2.683005        -0.273609         2.016269
 H        -5.579224        -0.610674         0.775464
 H        -5.194981        -1.034808         2.338905
 H        -5.643608         1.810322         1.993621
