19
Iteration:  3496charge 0 multiplicity 1
 C         1.448433         0.136480        -0.456806
 C        -0.027743         0.182057        -0.244442
 C        -1.067070        -0.047802         0.308528
 C        -2.516755        -0.091674         0.289064
 O        -3.090946         0.906849        -0.703988
 C        -3.340489        -0.009364         1.765514
 C        -4.879393        -0.197732         1.494817
 C        -5.550039         0.384665         2.752797
 O        -5.322269         1.458279         3.293251
 H         1.763341        -0.464976        -1.368193
 H         1.896252         1.110841        -0.544842
 H         1.919501        -0.438854         0.399281
 H        -2.996808        -1.014254        -0.036028
 H        -2.842835         1.832536        -0.522138
 H        -2.991266        -0.939699         2.344400
 H        -3.235917         0.842250         2.460974
 H        -5.186123         0.210508         0.462474
 H        -5.024726        -1.340828         1.610880
 H        -6.500876        -0.137726         3.023583
