19
Iteration:  2322
 C         0.916338         0.269915         0.671515
 C        -0.455107         0.162979         0.197940
 C        -1.531632         0.063063        -0.415625
 C        -2.981733        -0.002948        -0.094806
 O        -3.617967         1.259178        -0.089159
 C        -3.128187        -0.862112         1.222848
 C        -4.490494        -0.719038         1.884821
 C        -4.916157         0.784785         2.141114
 O        -4.259449         1.682595         2.693119
 H         1.360649         1.191713         0.208189
 H         0.859913         0.614958         1.707839
 H         1.665901        -0.508694         0.560027
 H        -3.437836        -0.617601        -0.909293
 H        -3.298562         1.826278         0.635284
 H        -3.078441        -1.949468         1.115962
 H        -2.332060        -0.426931         1.848894
 H        -5.237535        -1.309795         1.320749
 H        -4.432378        -1.294862         2.860252
 H        -5.981925         0.845351         1.843900
