19
Iteration:  4140charge 0 multiplicity 1
 C         1.352604         0.626807        -0.550161
 C         0.026354         0.171669         0.033686
 C        -1.109505         0.088977         0.409407
 C        -2.504864        -0.072516         0.740138
 O        -3.350020        -0.485664        -0.385674
 C        -3.120035         1.146761         1.460153
 C        -4.644701         1.155556         1.305641
 C        -5.674321         0.558729         2.327887
 O        -5.327033        -0.182526         3.261488
 H         1.676078         1.503710         0.039910
 H         2.121737        -0.160228        -0.598210
 H         1.255662         0.916160        -1.616438
 H        -2.564845        -0.865348         1.549398
 H        -2.728910        -0.652811        -1.142305
 H        -2.718482         1.305079         2.470213
 H        -2.690930         2.003120         0.939144
 H        -4.963796         2.230471         1.470037
 H        -4.763314         0.922920         0.195514
 H        -6.716043         1.052003         2.151945
