19
Iteration:  4512
 C         1.213012         0.540326        -0.277029
 C        -0.010658         0.040536         0.258677
 C        -1.208265        -0.165392         0.555065
 C        -2.724432        -0.085299         0.528218
 O        -3.238369        -0.145164        -0.841644
 C        -3.322090         1.277336         1.175780
 C        -4.891029         1.256176         1.386602
 C        -5.478046         0.471330         2.613726
 O        -4.764452        -0.210869         3.332290
 H         2.025798         0.334713         0.416954
 H         1.525439        -0.174836        -1.123870
 H         1.223940         1.499961        -0.763512
 H        -3.035399        -0.894261         1.186299
 H        -2.601143        -0.513876        -1.468434
 H        -2.797005         1.352713         2.147260
 H        -2.961607         2.154830         0.632963
 H        -5.178659         2.304385         1.268361
 H        -5.490008         0.737281         0.489459
 H        -6.604739         0.562183         2.659342
