19
Iteration:  3255charge 0 multiplicity 1
 C         1.365958         0.040136        -0.125855
 C        -0.145359         0.425554        -0.270603
 C        -1.298479         0.114333        -0.008887
 C        -2.692410        -0.074674         0.258552
 O        -3.509191         1.104987        -0.171370
 C        -3.045652        -0.414557         1.710096
 C        -4.617674        -0.620582         1.863051
 C        -5.445901         0.625904         2.248395
 O        -4.983262         1.586091         2.859212
 H         1.263006        -1.104902         0.124297
 H         1.986069         0.132497        -1.027326
 H         1.993418         0.463351         0.722122
 H        -3.126311        -0.887262        -0.418587
 H        -2.908063         1.881172        -0.287286
 H        -2.524720        -1.323412         2.020913
 H        -2.733347         0.397237         2.366696
 H        -5.100865        -0.929295         0.918716
 H        -4.881360        -1.532119         2.549194
 H        -6.547495         0.492916         2.093877
