19
Iteration:  3072
 C         1.128895         0.673834        -0.237051
 C        -0.225944         0.134964         0.037404
 C        -1.333633        -0.350412         0.112139
 C        -2.814467        -0.288426         0.217914
 O        -3.206069         1.080839        -0.012833
 C        -3.260757        -0.701109         1.675465
 C        -4.696737        -0.580763         1.911532
 C        -5.275263         0.840239         2.151133
 O        -4.707745         1.789000         2.680416
 H         1.848399         0.532746         0.483397
 H         1.489560         0.403219        -1.203309
 H         0.927840         1.717892        -0.184182
 H        -3.348584        -1.077897        -0.373966
 H        -3.525996         1.049799        -0.925243
 H        -3.084140        -1.780243         1.568996
 H        -2.495259        -0.348640         2.378111
 H        -5.022072        -0.992720         0.868031
 H        -5.040649        -1.341362         2.712025
 H        -6.383248         0.972454         1.751153
