19
Iteration:  3609charge 0 multiplicity 1
 C         1.408394         0.528014        -0.105967
 C         0.016154         0.154818        -0.109298
 C        -1.151183        -0.276513         0.106343
 C        -2.596936        -0.374571         0.179058
 O        -3.188598         0.379653        -0.914382
 C        -3.423102         0.293839         1.472788
 C        -4.860479         0.284416         1.390636
 C        -5.551794         0.925792         2.698739
 O        -5.041949         0.884882         3.789273
 H         1.834205         0.505636        -1.086976
 H         1.583252         1.501263         0.424525
 H         1.836489        -0.283840         0.427827
 H        -2.858098        -1.504363         0.095466
 H        -2.438466         0.561073        -1.515642
 H        -3.094528        -0.373841         2.219575
 H        -2.966658         1.230597         1.797285
 H        -5.473549         0.747597         0.546723
 H        -5.315400        -0.786560         1.247082
 H        -6.514548         1.481307         2.443483
