19
Iteration:  2607
 C         1.252580         0.450100         0.136767
 C        -0.128411         0.082084        -0.094891
 C        -1.288666        -0.235972        -0.054646
 C        -2.757399        -0.180417        -0.010530
 O        -3.221310         0.880305        -0.789594
 C        -3.255927        -0.140693         1.429201
 C        -4.812217        -0.267298         1.680049
 C        -5.413574         0.782757         2.580741
 O        -4.812857         1.263868         3.526622
 H         1.378543         1.584366         0.268248
 H         1.720644        -0.202368         0.922841
 H         1.777250         0.173302        -0.830911
 H        -3.107608        -1.086505        -0.521331
 H        -2.763791         1.691749        -0.538767
 H        -2.884422        -0.973256         2.001317
 H        -2.950626         0.843583         1.627688
 H        -5.411951        -0.466117         0.842198
 H        -4.939797        -1.172982         2.230533
 H        -6.427261         1.179394         2.376054
