19
Iteration:  4551charge 0 multiplicity 1
 C         1.091220         0.490482        -0.062453
 C        -0.182875         0.017270         0.315132
 C        -1.349375        -0.019787         0.385394
 C        -2.755459        -0.076108         0.446603
 O        -3.314796        -0.085548        -0.861335
 C        -3.185648         1.119641         1.189521
 C        -4.768439         1.031007         1.265706
 C        -5.322930         0.383182         2.514896
 O        -4.624580         0.034659         3.441207
 H         1.939983         0.227955         0.602285
 H         1.276380        -0.132314        -0.891323
 H         1.195636         1.623367        -0.152599
 H        -3.193259        -1.027605         0.892309
 H        -2.796162         0.650732        -1.241148
 H        -2.836794         1.134339         2.251475
 H        -3.080446         2.014700         0.544403
 H        -5.282971         2.037418         1.283401
 H        -5.024701         0.550122         0.374075
 H        -6.478512         0.079975         2.584870
