19
Iteration:  4114
 C         1.169771         0.718963        -0.501921
 C         0.059304         0.159021         0.262432
 C        -1.119340        -0.036923         0.416707
 C        -2.480934        -0.186603         0.682206
 O        -3.267699        -0.359264        -0.518647
 C        -3.151515         1.097881         1.282453
 C        -4.646854         1.277567         1.350060
 C        -5.487187         0.577192         2.389718
 O        -5.341449        -0.184802         3.312675
 H         1.585501         1.698574        -0.250523
 H         1.935814        -0.044251        -0.486250
 H         0.864407         0.646128        -1.557238
 H        -2.594513        -0.986390         1.448747
 H        -3.237414        -1.265096        -0.922112
 H        -2.682272         1.300211         2.246583
 H        -2.700593         1.866385         0.652905
 H        -5.053432         2.286090         1.306950
 H        -4.980019         0.741572         0.397752
 H        -6.519239         0.862438         2.074752
