19
Iteration:  1602charge 0 multiplicity 1
 C         1.466219        -0.049790        -0.247251
 C         0.023364        -0.079203         0.030993
 C        -1.135717         0.072654         0.371878
 C        -2.604135         0.105544         0.295923
 O        -2.955825         1.067581        -0.884782
 C        -3.437398         0.512330         1.513254
 C        -4.924809         0.272755         1.236111
 C        -5.737603         0.287946         2.618846
 O        -5.141132         0.510321         3.664500
 H         1.761338        -1.001768        -0.819332
 H         1.614909         0.756964        -0.993140
 H         2.116821         0.187247         0.653478
 H        -2.906745        -0.747585        -0.265816
 H        -2.534811         1.938710        -0.682575
 H        -2.999009        -0.080845         2.404550
 H        -3.009905         1.479004         1.824999
 H        -5.371830         1.003375         0.492502
 H        -5.100071        -0.725485         0.799710
 H        -6.820968         0.223079         2.461961
