19
Iteration:  4283charge 0 multiplicity 1
 C         1.142115         0.413474        -0.519599
 C        -0.167393         0.038618        -0.095347
 C        -1.150240         0.148254         0.632982
 C        -2.609505         0.140364         0.983165
 O        -3.352447        -0.353594        -0.090307
 C        -3.169540         1.481330         1.258936
 C        -4.662703         1.479267         1.410657
 C        -5.334448         0.220896         2.002264
 O        -5.058480        -0.458258         2.987037
 H         1.745050         0.838113         0.309427
 H         1.675820        -0.418158        -1.093211
 H         1.135885         1.158266        -1.332548
 H        -2.770274        -0.545243         1.924908
 H        -2.883129        -1.207217        -0.141323
 H        -2.603293         1.835562         2.132639
 H        -2.975357         2.197828         0.429801
 H        -5.106846         2.365501         1.927724
 H        -5.061056         1.497628         0.338822
 H        -6.170262        -0.120802         1.270781
