19
Iteration:  3299charge 0 multiplicity 1
 C         1.300736        -0.049578         0.066729
 C        -0.099640        -0.062758        -0.086668
 C        -1.305532         0.179355        -0.159703
 C        -2.880507         0.129900         0.038974
 O        -3.572198         1.262217        -0.423245
 C        -2.987959        -0.159944         1.574597
 C        -4.339291        -0.659340         1.956636
 C        -5.347916         0.473535         2.391412
 O        -5.115147         1.525862         2.975863
 H         1.863250        -1.036197         0.162073
 H         1.764856         0.530111        -0.734750
 H         1.548583         0.574294         0.953246
 H        -3.305724        -0.759594        -0.579880
 H        -3.463620         1.972574         0.252526
 H        -2.080488        -0.698050         1.803348
 H        -2.833516         0.821966         2.013642
 H        -4.775538        -1.255058         1.141280
 H        -4.421549        -1.412474         2.865800
 H        -6.396818         0.231665         2.054048
