19
Iteration:   148charge 0 multiplicity 1
 C         1.391196         0.094920         0.188893
 C        -0.064315        -0.042112        -0.157092
 C        -1.254751        -0.150699        -0.347580
 C        -2.727257         0.046692        -0.186073
 O        -2.971485         1.487925        -0.361391
 C        -3.092174        -0.197284         1.268318
 C        -4.672530        -0.001072         1.565957
 C        -5.001418         0.694817         2.845266
 O        -5.999736         0.649022         3.537959
 H         1.644906         0.583864         1.160311
 H         2.015628        -0.894689         0.184204
 H         1.878009         0.741117        -0.574510
 H        -3.391832        -0.600248        -0.817085
 H        -2.650309         1.884717        -1.215475
 H        -2.819661        -1.334522         1.372019
 H        -2.621953         0.609927         1.698380
 H        -5.052958         0.691790         0.734856
 H        -5.315649        -0.934084         1.532583
 H        -4.126934         1.477781         3.152601
