19
Iteration:   384
 C         1.431649        -0.171549        -0.514918
 C         0.027121        -0.093218        -0.085135
 C        -1.129440        -0.246356         0.226720
 C        -2.541217         0.233324         0.145914
 O        -2.761594         1.366461        -0.725074
 C        -3.148733         0.466571         1.614079
 C        -4.661059         0.482987         1.620501
 C        -5.315628         0.635492         2.964240
 O        -6.257203         0.042453         3.369377
 H         2.136311         0.424544         0.202728
 H         1.731405        -1.186209        -0.553814
 H         1.514590         0.318591        -1.550618
 H        -3.154024        -0.551312        -0.231960
 H        -2.490987         1.127385        -1.655150
 H        -2.758043        -0.386362         2.140257
 H        -2.792502         1.429970         1.941714
 H        -5.039910         1.374206         1.092420
 H        -5.081998        -0.304818         1.036459
 H        -4.750669         1.264454         3.796763
