19
Iteration:  2924charge 0 multiplicity 1
 C         1.361845        -0.035019         0.147358
 C        -0.136380         0.164347        -0.115932
 C        -1.331223         0.267510        -0.162277
 C        -2.741503         0.045708         0.050792
 O        -3.588695         0.786147        -0.857568
 C        -3.076681         0.136510         1.625472
 C        -4.507654        -0.558541         1.941236
 C        -5.367125         0.453939         2.770725
 O        -4.994792         1.564406         3.052531
 H         1.525442         0.051970         1.267779
 H         1.633681        -1.060444        -0.138930
 H         2.105702         0.572896        -0.396052
 H        -2.871729        -1.067689        -0.143150
 H        -2.962096         1.188862        -1.464447
 H        -2.304084        -0.282861         2.281109
 H        -3.195553         1.178316         1.936071
 H        -5.085222        -0.670330         1.023573
 H        -4.581370        -1.570860         2.530803
 H        -6.362193         0.147279         3.046891
