19
Iteration:  3777charge 0 multiplicity 1
 C         1.231704         0.294404         0.422408
 C        -0.202894         0.171722         0.384569
 C        -1.427838        -0.011161         0.261817
 C        -2.873352        -0.154953         0.142031
 O        -3.404264        -0.137154        -1.251471
 C        -3.455093         1.140345         0.805370
 C        -4.810865         0.827587         1.365724
 C        -5.167838         0.456547         2.794829
 O        -4.362524         0.435699         3.747689
 H         1.632512         0.926686        -0.395364
 H         1.604579         0.799879         1.306824
 H         1.782018        -0.681035         0.304253
 H        -3.091891        -1.082990         0.636281
 H        -2.875183        -0.814963        -1.723957
 H        -2.775635         1.670620         1.467842
 H        -3.506370         1.801197        -0.053205
 H        -5.538293         1.652361         1.032481
 H        -5.305407        -0.005357         0.676613
 H        -6.174193        -0.018608         2.870688
