19
Iteration:  1136charge 0 multiplicity 1
 C         1.589068        -0.156451        -0.284759
 C         0.114125        -0.099173        -0.196185
 C        -1.015530         0.070791         0.012055
 C        -2.446209         0.170499         0.014363
 O        -2.989516         1.295565        -0.678502
 C        -3.244201         0.239443         1.496394
 C        -4.847601         0.356429         1.448110
 C        -5.379137         0.039524         2.941545
 O        -6.094457         0.777447         3.624722
 H         2.033025        -0.891221         0.428209
 H         1.904633        -0.491009        -1.280336
 H         2.050909         0.820894        -0.104916
 H        -2.833869        -0.656170        -0.492876
 H        -2.593453         2.159533        -0.362454
 H        -3.004656        -0.761634         2.009153
 H        -2.878384         1.027176         2.240667
 H        -5.344070         1.388133         1.302051
 H        -5.257748        -0.451033         0.880102
 H        -5.012473        -0.998993         3.239992
