19
Iteration:  1136charge 0 multiplicity 1
 C        -0.029963         0.012622        -0.303833
 C         1.422398         0.073851        -0.067328
 O         2.061358        -1.151337         0.038907
 C         2.451495        -0.184984        -1.086167
 C         3.495953         0.853276        -0.553751
 C         3.621684         2.126055        -1.393605
 C         2.400892         3.014095        -1.097233
 O         1.989427         2.646351         0.236839
 C         2.374901         1.186301         0.550805
 H        -0.701946         0.081655         0.525800
 H        -0.419740         0.862016        -0.862035
 H        -0.273926        -0.894923        -0.784539
 H         2.312736        -0.727777        -2.022627
 H         4.476264         0.499250        -0.225829
 H         4.605276         2.616349        -1.048050
 H         3.748986         1.935864        -2.492876
 H         2.651860         4.057115        -1.105994
 H         1.613086         2.805566        -1.995021
 H         2.559853         1.315062         1.650344
