19
Iteration:   247
 C        -0.034968         0.144904        -0.099867
 C         1.428019         0.162329        -0.294141
 O         1.986113        -1.085833         0.037449
 C         2.514778        -0.318370        -1.150525
 C         3.437349         0.758440        -0.545305
 C         3.634903         2.230139        -1.335371
 C         2.383699         2.942365        -1.103562
 O         2.112986         2.588621         0.271531
 C         2.306102         1.186593         0.425329
 H        -0.161137        -0.240185         0.920289
 H        -0.456269         1.156864        -0.164636
 H        -0.535114        -0.572754        -0.773005
 H         2.480179        -0.876130        -2.013726
 H         4.430284         0.279658        -0.123380
 H         4.534313         2.666339        -0.968384
 H         3.915128         1.934560        -2.408124
 H         2.500937         3.999666        -1.200062
 H         1.586299         2.746403        -1.845038
 H         2.314992         1.032267         1.502886
