19
Iteration:   573
 C        -0.111839         0.223854        -0.167086
 C         1.386078         0.212503        -0.158654
 O         2.057628        -1.040336         0.080233
 C         2.559382        -0.290753        -1.163300
 C         3.488268         0.794342        -0.552941
 C         3.609573         2.135963        -1.384426
 C         2.383475         2.905801        -1.071852
 O         2.016569         2.476789         0.226531
 C         2.389830         1.174510         0.457871
 H        -0.506477        -0.539240         0.577343
 H        -0.543874         1.292127         0.030244
 H        -0.321906        -0.176618        -1.201561
 H         2.500189        -0.857555        -2.082609
 H         4.522979         0.588067        -0.256612
 H         4.498621         2.700134        -1.043040
 H         3.796360         1.959074        -2.491840
 H         2.560457         4.009251        -1.080318
 H         1.468912         2.628363        -1.761906
 H         2.613945         0.982363         1.520949
