19
Iteration:    43charge 0 multiplicity 1
 C        -0.052693         0.219646        -0.161571
 C         1.376565         0.093082        -0.224627
 O         2.068847        -1.074758         0.085426
 C         2.528871        -0.299837        -1.162022
 C         3.423769         0.827206        -0.498646
 C         3.609820         2.112304        -1.423786
 C         2.448472         2.996410        -1.051659
 O         2.086370         2.538998         0.229124
 C         2.278084         1.157399         0.409108
 H        -0.243900        -0.228268         0.839119
 H        -0.411981         1.231420        -0.123584
 H        -0.744442        -0.254298        -0.855160
 H         2.636327        -0.896005        -2.006572
 H         4.290962         0.564884         0.001813
 H         4.524715         2.567895        -1.128389
 H         3.699054         1.907055        -2.501964
 H         2.638559         4.050256        -1.008530
 H         1.624586         2.872991        -1.788859
 H         2.384083         0.924882         1.526823
