19
Iteration:  3055charge 0 multiplicity 1
 C        -0.107678        -0.021969        -0.153600
 C         1.408029         0.100581        -0.085856
 O         2.201430        -1.118347         0.031911
 C         2.469300        -0.266425        -1.086174
 C         3.452131         0.871279        -0.529840
 C         3.678132         2.107507        -1.466870
 C         2.605680         3.135635        -0.979653
 O         1.850176         2.591936         0.113649
 C         2.233076         1.192983         0.470276
 H        -0.593287         0.090097         0.796378
 H        -0.631328         0.760796        -0.797864
 H        -0.336139        -0.914029        -0.638661
 H         2.414387        -0.865334        -1.987382
 H         4.439942         0.517646        -0.222713
 H         4.636763         2.631249        -1.437190
 H         3.213480         1.862494        -2.536991
 H         3.070551         4.082979        -0.688160
 H         1.800641         3.358088        -1.733133
 H         2.528817         0.908982         1.528649
