19
Iteration:  1772charge 0 multiplicity 1
 C        -0.069495         0.195666        -0.436665
 C         1.400227         0.018949        -0.111436
 O         2.192676        -1.120960         0.182155
 C         2.594864        -0.347094        -0.988427
 C         3.387683         0.818101        -0.600214
 C         3.601948         2.139609        -1.431362
 C         2.342812         3.037475        -1.045255
 O         2.024462         2.584296         0.289834
 C         2.293239         1.231149         0.431991
 H        -0.682120        -0.000631         0.422000
 H        -0.328384         1.222828        -0.547670
 H        -0.272060        -0.367969        -1.296543
 H         2.484545        -0.910745        -1.969699
 H         4.283768         0.367916        -0.210420
 H         4.513311         2.726361        -1.334307
 H         3.606765         2.070563        -2.613458
 H         2.342213         4.106783        -0.944651
 H         1.590414         2.637143        -1.729088
 H         2.610761         1.050170         1.491723
