19
Iteration:  4596
 C        -0.095410        -0.087224        -0.102678
 C         1.343640         0.176844        -0.146504
 O         2.158348        -1.015813        -0.019725
 C         2.409221        -0.183563        -1.180247
 C         3.460598         0.815079        -0.608413
 C         3.733555         2.170080        -1.300028
 C         2.476170         2.937886        -1.054617
 O         2.014330         2.583474         0.212000
 C         2.255920         1.247468         0.449643
 H        -0.273742        -0.469278         0.837340
 H        -0.749349         0.846776        -0.192552
 H        -0.226071        -0.856714        -0.847707
 H         2.269642        -0.614157        -2.156839
 H         4.354683         0.248472        -0.338673
 H         4.500524         2.776642        -0.895908
 H         3.813108         1.897703        -2.337556
 H         2.848086         3.952054        -1.010570
 H         1.694917         2.727961        -1.712564
 H         2.236894         0.942930         1.520649
