19
Iteration:  2239charge 0 multiplicity 1
 C        -0.016287         0.076404        -0.240458
 C         1.418665         0.158334        -0.150834
 O         2.133334        -1.078244        -0.009645
 C         2.430050        -0.226757        -1.178483
 C         3.454694         0.820477        -0.464498
 C         3.659804         2.117759        -1.315314
 C         2.346812         2.940076        -1.153423
 O         1.965935         2.561328         0.246039
 C         2.360972         1.201784         0.558437
 H        -0.494169         0.233589         0.708915
 H        -0.409707         0.905489        -0.768745
 H        -0.444294        -0.833548        -0.750508
 H         2.518537        -0.712432        -2.196149
 H         4.505505         0.491486        -0.126729
 H         4.599105         2.733488        -0.885868
 H         3.986353         1.923442        -2.382226
 H         2.380528         3.988409        -1.176520
 H         1.637228         2.606375        -1.894604
 H         2.508610         1.321509         1.658311
