19
Iteration:  3174
 C        -0.067172         0.234850        -0.205934
 C         1.438845         0.160853        -0.008645
 O         2.146702        -1.041578        -0.102538
 C         2.528294        -0.224422        -1.062830
 C         3.523549         0.842065        -0.497013
 C         3.644701         2.179864        -1.341212
 C         2.213309         2.720459        -1.249179
 O         1.958199         2.499468         0.227954
 C         2.443169         1.142834         0.586011
 H        -0.782593         0.180267         0.660337
 H        -0.212979         1.307522        -0.662883
 H        -0.399350        -0.384963        -1.001318
 H         2.473649        -0.388594        -2.122473
 H         4.436626         0.619899         0.022220
 H         4.356479         2.781945        -0.796649
 H         3.753026         2.200158        -2.521155
 H         2.242208         3.796484        -1.475824
 H         1.471287         2.144560        -1.835441
 H         2.525994         1.176678         1.705333
