19
Iteration:  3265
 C        -0.070980        -0.156508        -0.255455
 C         1.437440         0.200014        -0.187124
 O         2.166358        -1.131091         0.102707
 C         2.451252        -0.238620        -1.072654
 C         3.407984         0.815390        -0.597844
 C         3.574503         2.008749        -1.459313
 C         2.439101         3.087558        -1.013500
 O         2.070710         2.731333         0.288252
 C         2.278438         1.311252         0.458457
 H        -0.570656        -0.342710         0.652732
 H        -0.432219         0.704373        -0.739380
 H        -0.123441        -1.029327        -0.993595
 H         2.544228        -0.640605        -2.130981
 H         4.105298         0.330260         0.055928
 H         4.583138         2.555761        -1.289208
 H         3.303837         1.734999        -2.550512
 H         2.840376         4.060246        -0.825636
 H         1.696440         3.063565        -1.785461
 H         2.285542         1.079378         1.517540
