19
Iteration:  1861
 C        -0.041314         0.085469        -0.183316
 C         1.407245         0.140850        -0.056438
 O         2.156186        -1.078965        -0.072660
 C         2.418048        -0.195554        -1.128813
 C         3.486515         0.859378        -0.538006
 C         3.722323         2.204192        -1.250382
 C         2.405382         2.839309        -1.173344
 O         1.904275         2.545915         0.165506
 C         2.303455         1.221413         0.536047
 H        -0.582501         0.042736         0.749796
 H        -0.428029         1.025844        -0.579591
 H        -0.320026        -0.702889        -0.791480
 H         2.241500        -0.731720        -2.038901
 H         4.363652         0.353854        -0.216889
 H         4.493058         2.749825        -0.596350
 H         4.259198         1.857464        -2.196844
 H         2.575717         3.922848        -1.315470
 H         1.727144         2.412545        -1.977336
 H         2.514612         1.185238         1.636281
