19
Iteration:  4487charge 0 multiplicity 1
 C        -0.034436         0.152348        -0.286392
 C         1.496364         0.139062        -0.162820
 O         2.138334        -1.145049        -0.016907
 C         2.504549        -0.289710        -1.153740
 C         3.467269         0.867235        -0.578334
 C         3.529664         2.136239        -1.372770
 C         2.279642         2.850543        -1.051445
 O         2.053079         2.616183         0.356488
 C         2.347449         1.230533         0.497979
 H        -0.524901         0.045137         0.619142
 H        -0.326192         1.232100        -0.655249
 H        -0.443580        -0.510841        -0.992540
 H         2.541141        -0.691797        -2.141894
 H         4.411035         0.668764        -0.094326
 H         4.366907         2.718814        -0.873511
 H         3.920556         1.971031        -2.405922
 H         2.480354         3.938436        -1.168310
 H         1.253757         2.525630        -1.437330
 H         2.411108         0.971963         1.639626
