19
Iteration:  2360
 C        -0.011798         0.248155        -0.231958
 C         1.451738         0.162409        -0.070448
 O         2.178808        -1.132285        -0.077782
 C         2.588858        -0.252541        -1.068114
 C         3.509540         0.755145        -0.456992
 C         3.569034         2.073550        -1.334828
 C         2.313497         2.895878        -1.140208
 O         1.892281         2.561105         0.207505
 C         2.296896         1.283626         0.520376
 H        -0.664398        -0.132154         0.573679
 H        -0.331851         1.301504        -0.395645
 H        -0.213650        -0.239941        -1.166957
 H         2.671536        -0.562173        -2.173432
 H         4.431343         0.375418         0.028846
 H         4.603870         2.411529        -1.248481
 H         3.637448         1.800371        -2.313190
 H         2.363687         3.957193        -1.067890
 H         1.538712         2.634917        -1.880787
 H         2.446961         1.041272         1.587801
