19
Iteration:  2467charge 0 multiplicity 1
 C        -0.033432         0.125351        -0.177078
 C         1.425328         0.087439        -0.138177
 O         2.151605        -1.144428         0.012998
 C         2.501126        -0.208205        -1.054790
 C         3.485206         0.823255        -0.504860
 C         3.669864         2.059813        -1.419505
 C         2.517871         3.097903        -1.052251
 O         1.759139         2.523440         0.114204
 C         2.314897         1.256814         0.517671
 H        -0.489967        -0.075049         0.813575
 H        -0.480496         1.060616        -0.580064
 H        -0.401958        -0.789772        -0.801308
 H         2.648271        -0.548306        -2.150462
 H         4.427620         0.463149        -0.048292
 H         4.616805         2.370815        -1.013813
 H         3.693191         1.694341        -2.485622
 H         2.801760         4.145614        -0.904097
 H         1.702868         3.046513        -1.837896
 H         2.567335         1.103271         1.549830
