19
Iteration:  2052charge 0 multiplicity 1
 C         0.029677         0.259100        -0.329687
 C         1.480166         0.124890        -0.091912
 O         2.156018        -1.137671        -0.038064
 C         2.600303        -0.253445        -1.066288
 C         3.486030         0.841567        -0.412196
 C         3.490458         1.998858        -1.455993
 C         2.333587         2.998636        -1.027442
 O         1.873402         2.525133         0.188744
 C         2.360743         1.202012         0.579433
 H        -0.421357         0.581487         0.558446
 H        -0.205637         1.029754        -0.958744
 H        -0.329180        -0.737908        -0.707545
 H         2.353450        -0.700554        -2.051808
 H         4.544698         0.670352        -0.012083
 H         4.586036         2.399389        -1.409585
 H         3.367696         1.510360        -2.408624
 H         2.626126         4.035983        -0.922199
 H         1.491846         2.946624        -1.824041
 H         2.378309         1.444655         1.608612
