19
Iteration:  2402charge 0 multiplicity 1
 C        -0.141277         0.055891        -0.188976
 C         1.393262         0.210663        -0.159512
 O         2.121993        -1.034268        -0.071041
 C         2.530080        -0.198429        -1.121139
 C         3.503500         0.825258        -0.454449
 C         3.683022         2.093541        -1.281030
 C         2.318183         2.827733        -1.139166
 O         2.038107         2.618868         0.218823
 C         2.343732         1.195544         0.521782
 H        -0.557805        -0.113291         0.841983
 H        -0.660652         0.939916        -0.645709
 H        -0.211736        -0.829320        -0.944614
 H         2.497192        -0.705645        -2.159253
 H         4.484031         0.480328        -0.073840
 H         4.430685         2.828985        -0.894982
 H         3.982244         2.025383        -2.323180
 H         2.256277         3.840305        -1.523318
 H         1.530118         2.213794        -1.736314
 H         2.360240         1.293908         1.596963
