19
Iteration:  1243
 C        -0.035314         0.312487        -0.299491
 C         1.417938         0.114362        -0.047233
 O         2.233068        -1.120215        -0.007594
 C         2.489122        -0.150321        -1.053514
 C         3.469245         0.844812        -0.489912
 C         3.629165         2.137215        -1.403356
 C         2.286748         2.767255        -1.185210
 O         1.892893         2.531346         0.244104
 C         2.386346         1.117117         0.583093
 H        -0.637088        -0.116170         0.592418
 H        -0.171708         1.456366        -0.467366
 H        -0.342504        -0.172208        -1.275836
 H         2.473271        -0.466194        -2.145401
 H         4.436548         0.359133        -0.167985
 H         4.460841         2.796612        -1.056070
 H         3.734823         1.775817        -2.406126
 H         2.408561         3.836520        -1.289313
 H         1.531064         2.416428        -1.844530
 H         2.606770         1.260007         1.660940
