19
Iteration:  2037charge 0 multiplicity 1
 C         0.025545         0.230489        -0.325245
 C         1.503265         0.177590        -0.154121
 O         2.094814        -1.151691         0.025416
 C         2.589922        -0.188746        -0.983407
 C         3.540661         0.862343        -0.466840
 C         3.494940         2.015820        -1.453050
 C         2.385197         2.926194        -1.119187
 O         1.834026         2.510059         0.273268
 C         2.349717         1.212588         0.556233
 H        -0.559708         0.330329         0.633415
 H        -0.213092         0.871966        -1.261976
 H        -0.447700        -0.624438        -0.682974
 H         2.752937        -0.405811        -2.072022
 H         4.496401         0.473785        -0.140776
 H         4.347403         2.710517        -1.613587
 H         3.342117         1.754639        -2.553642
 H         2.799982         3.972312        -0.916303
 H         1.544630         3.008424        -1.741364
 H         2.635252         0.779740         1.558813
