19
Iteration:  3166
 C        -0.099446         0.238578        -0.188533
 C         1.455467         0.185499        -0.092212
 O         2.111794        -1.069683        -0.067772
 C         2.557837        -0.126113        -1.108179
 C         3.521092         0.855240        -0.451220
 C         3.632448         2.185186        -1.340000
 C         2.268686         2.643220        -1.237170
 O         1.955070         2.488728         0.246114
 C         2.402171         1.216569         0.584696
 H        -0.661141        -0.022897         0.673452
 H        -0.394484         1.246250        -0.445000
 H        -0.295017        -0.500406        -0.949712
 H         2.545408        -0.407416        -2.179738
 H         4.563867         0.540850        -0.320078
 H         4.426390         2.874407        -0.943582
 H         3.903163         1.868374        -2.441882
 H         2.116350         3.656869        -1.519828
 H         1.439049         2.160034        -1.698934
 H         2.662999         0.946252         1.598625
