19
Iteration:  4436charge 0 multiplicity 1
 C        -0.052462        -0.039430        -0.374980
 C         1.401148         0.136499        -0.180041
 O         2.152309        -1.075211         0.025654
 C         2.467186        -0.248813        -1.065506
 C         3.460549         0.792881        -0.604991
 C         3.527627         2.095021        -1.478316
 C         2.412993         3.064946        -0.958998
 O         2.082026         2.634036         0.376163
 C         2.302845         1.243056         0.535996
 H        -0.630052        -0.082137         0.635039
 H        -0.497429         0.734046        -0.956765
 H        -0.172899        -0.969010        -0.973582
 H         2.422770        -0.601162        -2.056365
 H         4.427828         0.498842        -0.227648
 H         4.560247         2.412999        -1.365210
 H         3.338492         1.977603        -2.540910
 H         2.713132         4.081074        -0.778246
 H         1.511328         2.939622        -1.523944
 H         2.576940         0.986950         1.519556
