19
Iteration:   907
 C        -0.038046         0.163221        -0.365749
 C         1.419903         0.120766        -0.097690
 O         2.117253        -1.129753         0.055873
 C         2.417333        -0.304464        -1.062217
 C         3.393228         0.794158        -0.578726
 C         3.612999         2.130759        -1.349187
 C         2.275403         2.916653        -1.075259
 O         2.069704         2.614743         0.299237
 C         2.472702         1.268924         0.487344
 H        -0.583483         0.553991         0.573571
 H        -0.216409         0.821389        -1.268278
 H        -0.365068        -0.844636        -0.699936
 H         2.456086        -0.649785        -2.048965
 H         4.374666         0.476599        -0.151194
 H         4.515304         2.705205        -1.037137
 H         3.756090         1.895596        -2.403467
 H         2.284931         4.016863        -1.266180
 H         1.581266         2.469516        -1.803388
 H         2.798191         1.159674         1.561262
