19
Iteration:  2621charge 0 multiplicity 1
 C        -0.154217        -0.095642        -0.226155
 C         1.386471         0.066679        -0.187032
 O         2.232827        -1.097383         0.218602
 C         2.531995        -0.293254        -1.035052
 C         3.396369         0.893821        -0.632092
 C         3.488914         2.086348        -1.588792
 C         2.909866         3.235549        -0.756340
 O         1.726716         2.549225         0.035856
 C         2.206623         1.261624         0.391373
 H        -0.608409         0.009146         0.719111
 H        -0.630498         0.419155        -1.105053
 H        -0.217805        -1.149062        -0.402368
 H         2.742396        -1.025367        -1.820974
 H         4.428573         0.706983        -0.177881
 H         4.589596         2.302918        -1.867975
 H         2.921911         2.177402        -2.610880
 H         3.790291         3.549026        -0.029160
 H         2.461304         4.073072        -1.237100
 H         2.201870         1.291480         1.498132
