19
Iteration:  4903
 C        -0.045198         0.008638        -0.054636
 C         1.397683         0.061369        -0.123789
 O         2.165368        -1.174209         0.046905
 C         2.406456        -0.192969        -1.172415
 C         3.468100         0.810357        -0.588945
 C         3.688867         2.195387        -1.410283
 C         2.594755         3.202667        -0.899935
 O         1.790927         2.473456         0.027897
 C         2.305051         1.179443         0.431958
 H        -0.405042        -0.274201         0.916338
 H        -0.315833         1.047782        -0.100270
 H        -0.553536        -0.540753        -0.880696
 H         2.286840        -0.689656        -2.127965
 H         4.346522         0.317292        -0.156406
 H         4.682629         2.627377        -1.231882
 H         3.679452         2.072612        -2.515002
 H         3.194331         4.093359        -0.493401
 H         1.852597         3.681185        -1.662479
 H         2.370695         1.133960         1.494941
