19
Iteration:  2581
 C        -0.062261        -0.068306        -0.260676
 C         1.409643         0.076741        -0.159930
 O         2.239752        -1.097167         0.211957
 C         2.559364        -0.289963        -1.023011
 C         3.383219         0.898656        -0.599355
 C         3.368564         2.081018        -1.622958
 C         2.973306         3.208824        -0.690893
 O         1.720607         2.565309        -0.048859
 C         2.134653         1.301607         0.430511
 H        -0.575426        -0.272417         0.770031
 H        -0.575747         0.734498        -0.901767
 H        -0.198839        -1.111940        -0.635660
 H         2.703952        -0.877637        -1.898047
 H         4.395223         0.600420        -0.274173
 H         4.459258         2.120804        -1.942362
 H         2.708920         1.736799        -2.339833
 H         3.572438         3.388608         0.145340
 H         2.725089         4.159910        -1.258223
 H         2.445859         0.980011         1.466440
