19
Iteration:  2410charge 0 multiplicity 1
 C        -0.089288         0.060886        -0.214409
 C         1.352926         0.162579        -0.198194
 O         2.147964        -1.026504        -0.014329
 C         2.460547        -0.245456        -1.167684
 C         3.508233         0.806866        -0.507545
 C         3.677232         2.146688        -1.228623
 C         2.326353         2.769189        -1.108279
 O         2.019386         2.676203         0.188487
 C         2.347921         1.239054         0.540085
 H        -0.429866        -0.130956         0.798767
 H        -0.596935         0.880429        -0.651802
 H        -0.377384        -0.922914        -0.794528
 H         2.363075        -0.557004        -2.199945
 H         4.491494         0.521754        -0.109053
 H         4.458592         2.745927        -0.790278
 H         4.165800         1.929949        -2.315049
 H         2.445305         3.839363        -1.394217
 H         1.470010         2.364141        -1.673499
 H         2.560430         1.109153         1.589337
