19
Iteration:  1351
 C        -0.097607        -0.027076        -0.163041
 C         1.366384         0.147926        -0.019926
 O         2.162273        -1.137331         0.035084
 C         2.397466        -0.228672        -1.097599
 C         3.445813         0.815460        -0.540275
 C         3.698417         2.149959        -1.354953
 C         2.561660         3.038390        -1.069971
 O         1.875087         2.562730         0.095777
 C         2.343776         1.243335         0.451924
 H        -0.610727        -0.232990         0.821361
 H        -0.578693         0.923313        -0.557201
 H        -0.261974        -0.832020        -0.902807
 H         2.348275        -0.605972        -2.194641
 H         4.397938         0.487546         0.007637
 H         4.700098         2.512131        -1.050990
 H         3.859734         2.217239        -2.406064
 H         2.728424         4.142693        -1.110478
 H         1.809442         2.916819        -2.005150
 H         2.648641         1.434046         1.463247
