19
Iteration:   824
 C        -0.109976         0.106609        -0.167627
 C         1.316636         0.059553         0.007698
 O         2.189363        -1.184885        -0.114070
 C         2.427466        -0.207139        -1.055812
 C         3.449656         0.859773        -0.445272
 C         3.654059         2.055458        -1.371134
 C         2.441105         2.960660        -1.140693
 O         1.984174         2.602484         0.155661
 C         2.385320         1.305224         0.500666
 H        -0.792553        -0.316456         0.515315
 H        -0.297407         1.178541        -0.207556
 H        -0.270460        -0.373946        -1.115246
 H         2.441058        -0.462721        -2.079738
 H         4.353533         0.552262         0.024669
 H         4.512394         2.638743        -1.126884
 H         3.763798         1.634915        -2.407530
 H         2.676665         4.026744        -1.138553
 H         1.642133         2.845007        -1.977856
 H         2.657373         1.353807         1.545541
