19
Iteration:  4560charge 0 multiplicity 1
 C        -0.080964         0.168995        -0.051328
 C         1.445793         0.123177        -0.127299
 O         2.185008        -1.163291        -0.136517
 C         2.437476        -0.213061        -1.151161
 C         3.496562         0.855883        -0.560915
 C         3.693037         2.221859        -1.210431
 C         2.354093         2.811941        -1.159061
 O         1.955288         2.560514         0.221879
 C         2.314616         1.209245         0.467146
 H        -0.540883        -0.335496         0.823962
 H        -0.487886         1.237158        -0.161902
 H        -0.583444        -0.337796        -0.882313
 H         2.245018        -0.655189        -2.133332
 H         4.470394         0.343352        -0.310027
 H         4.433814         2.730030        -0.660136
 H         4.188005         2.226053        -2.171997
 H         2.367610         3.867612        -1.348893
 H         1.578257         2.484104        -1.884431
 H         2.395260         1.388853         1.506770
