19
Iteration:    25charge 0 multiplicity 1
 C        -0.080487         0.187210        -0.068657
 C         1.439382         0.231208        -0.347646
 O         1.919966        -1.172837         0.019610
 C         2.593943        -0.476802        -1.010980
 C         3.559117         0.767064        -0.626138
 C         3.662708         2.112191        -1.380498
 C         2.362286         3.025186        -1.088791
 O         1.959644         2.664502         0.302940
 C         2.392076         1.236350         0.410897
 H        -0.284149        -0.278208         0.885184
 H        -0.536520         1.219846        -0.057943
 H        -0.513542        -0.433488        -0.860955
 H         2.626164        -0.962330        -2.082971
 H         4.567912         0.350460        -0.195549
 H         4.591727         2.639706        -0.957097
 H         3.793022         2.093838        -2.450140
 H         2.672756         4.119395        -1.051386
 H         1.559823         2.860955        -1.807120
 H         2.528490         0.978958         1.389129
