19
Iteration:  3859
 C        -0.034552         0.075329        -0.231829
 C         1.473591         0.083476        -0.195668
 O         2.193946        -1.119232         0.202010
 C         2.669084        -0.342478        -0.999588
 C         3.446181         0.942985        -0.683861
 C         3.311237         2.003379        -1.668592
 C         2.818730         3.106318        -0.651456
 O         1.669479         2.530137         0.033699
 C         2.237624         1.258382         0.395382
 H        -0.353192         0.486774         0.815439
 H        -0.193890         0.939499        -0.816901
 H        -0.602566        -0.719425        -0.631509
 H         2.573022        -0.885491        -1.878937
 H         4.371055         0.795555        -0.128779
 H         4.257465         2.415658        -2.189751
 H         2.576746         1.709725        -2.432046
 H         3.566332         3.425658         0.134028
 H         2.511886         4.035789        -1.062241
 H         2.640705         1.131302         1.472309
