19
Iteration:  1126charge 0 multiplicity 1
 C        -0.135371         0.081729        -0.286946
 C         1.411132         0.119266        -0.062905
 O         2.143204        -1.236578         0.072176
 C         2.422794        -0.229523        -1.080557
 C         3.446584         0.840451        -0.570683
 C         3.636863         2.189108        -1.329865
 C         2.420206         3.028221        -1.165248
 O         2.020493         2.532410         0.203770
 C         2.380710         1.292211         0.530343
 H        -0.684717         0.089394         0.632202
 H        -0.329372         0.829778        -1.073382
 H        -0.220027        -0.880714        -0.741591
 H         2.426110        -0.458317        -2.177189
 H         4.398239         0.434023        -0.227556
 H         4.415498         2.876245        -0.872800
 H         3.909849         1.965232        -2.417327
 H         2.634789         4.080716        -1.029754
 H         1.447626         2.911978        -1.869277
 H         2.622505         1.000744         1.588410
