19
Iteration:  2926charge 0 multiplicity 1
 C        -0.096973         0.067702        -0.211922
 C         1.394196         0.053751        -0.200778
 O         2.180947        -1.094359         0.064250
 C         2.602693        -0.262555        -1.005802
 C         3.441665         0.891033        -0.557158
 C         3.505008         2.002879        -1.555028
 C         2.646101         3.149331        -0.876770
 O         1.825724         2.551699         0.096682
 C         2.319982         1.244907         0.532007
 H        -0.415398        -0.700404         0.521126
 H        -0.617980         1.137935        -0.110808
 H        -0.556448        -0.512711        -1.033882
 H         2.657753        -0.718604        -1.985889
 H         4.477236         0.737577        -0.069170
 H         4.478954         2.259595        -1.942739
 H         2.955947         1.634863        -2.362817
 H         3.188173         4.014267        -0.371452
 H         1.918506         3.438997        -1.733186
 H         2.288524         1.072211         1.648869
