19
Iteration:   933
 C        -0.017183         0.150277        -0.320259
 C         1.413034         0.213948        -0.075255
 O         2.106262        -1.032323        -0.001658
 C         2.467327        -0.159614        -1.004466
 C         3.558221         0.797866        -0.589663
 C         3.588885         1.996779        -1.502750
 C         2.350036         2.862777        -1.045270
 O         1.976708         2.496491         0.305827
 C         2.336173         1.242901         0.615416
 H        -0.623562         0.161771         0.509209
 H        -0.170128         0.906154        -1.075851
 H        -0.224362        -0.744909        -0.898416
 H         2.558339        -0.409595        -2.115259
 H         4.532157         0.553041        -0.137852
 H         4.481716         2.542602        -1.578056
 H         3.529216         1.675519        -2.560620
 H         2.559600         3.970359        -1.101964
 H         1.560409         2.956126        -1.905365
 H         2.345153         1.146114         1.708209
