19
Iteration:  1692charge 0 multiplicity 1
 C        -0.053723         0.188589        -0.225750
 C         1.433080         0.230905        -0.218797
 O         2.156798        -1.111267         0.002420
 C         2.576700        -0.286264        -1.092281
 C         3.476232         0.822269        -0.510435
 C         3.615955         2.091751        -1.277727
 C         2.235412         2.784403        -1.092934
 O         1.999367         2.612605         0.210568
 C         2.364022         1.263713         0.487725
 H        -0.497889         0.280788         0.696689
 H        -0.041582         1.126148        -0.715115
 H        -0.586447        -0.544363        -0.843059
 H         2.484658        -0.691312        -2.066293
 H         4.370700         0.350216        -0.043908
 H         4.213799         2.815551        -0.720471
 H         3.989317         1.742534        -2.307066
 H         2.172808         3.824389        -1.387222
 H         1.547456         2.255873        -1.775995
 H         2.315550         1.121352         1.548572
