19
Iteration:  4075charge 0 multiplicity 1
 C        -0.034555         0.282306        -0.261150
 C         1.477663         0.157265        -0.183140
 O         2.127302        -1.093416        -0.078914
 C         2.652076        -0.316589        -1.082307
 C         3.518445         0.813579        -0.496636
 C         3.605800         2.094103        -1.452679
 C         2.190999         2.852331        -1.109290
 O         1.893603         2.542536         0.381086
 C         2.386398         1.206388         0.564838
 H        -0.327248         0.554102         0.862371
 H        -0.399190         1.171795        -0.871221
 H        -0.463970        -0.620495        -0.615935
 H         2.524508        -0.699736        -2.083053
 H         4.540462         0.534635        -0.169675
 H         4.386226         2.828187        -1.174686
 H         3.591517         1.885530        -2.525079
 H         2.356573         3.980804        -0.970117
 H         1.597310         2.512855        -2.013131
 H         2.531927         1.033672         1.605423
