19
Iteration:  4077charge 0 multiplicity 1
 C        -0.041676         0.270348        -0.281749
 C         1.469911         0.157711        -0.186603
 O         2.118941        -1.097558        -0.048472
 C         2.656737        -0.286763        -1.078722
 C         3.502368         0.822840        -0.508941
 C         3.603155         2.102493        -1.466974
 C         2.217361         2.843927        -1.091656
 O         1.900950         2.530500         0.384891
 C         2.388321         1.203464         0.553619
 H        -0.322751         0.572115         0.863471
 H        -0.374659         1.117651        -0.832135
 H        -0.473056        -0.686644        -0.624070
 H         2.524367        -0.759796        -2.123763
 H         4.525396         0.558750        -0.204828
 H         4.412658         2.868200        -1.189373
 H         3.596541         1.915320        -2.579291
 H         2.378371         3.967003        -0.985872
 H         1.578663         2.561234        -1.969642
 H         2.516445         1.030724         1.631322
