19
Iteration:  3319charge 0 multiplicity 1
 C        -0.041796         0.066565        -0.251705
 C         1.418326         0.164291        -0.179980
 O         2.158565        -1.061913         0.090938
 C         2.505343        -0.313857        -1.088794
 C         3.451033         0.847803        -0.611026
 C         3.619805         2.121364        -1.366837
 C         2.367147         2.946651        -1.113804
 O         1.999263         2.595752         0.286524
 C         2.337864         1.243735         0.487936
 H        -0.313364        -0.239058         0.760824
 H        -0.544608         0.976937        -0.493059
 H        -0.534714        -0.674649        -0.972580
 H         2.420794        -0.781415        -2.108664
 H         4.298152         0.428677        -0.141120
 H         4.552263         2.708706        -1.071367
 H         3.690806         1.919656        -2.489187
 H         2.497118         4.016076        -1.061836
 H         1.553898         2.662349        -1.843228
 H         2.201964         0.972190         1.507461
