19
Iteration:  2680charge 0 multiplicity 1
 C        -0.055018         0.062093        -0.205185
 C         1.416106         0.012820        -0.108818
 O         2.188371        -1.145132         0.076151
 C         2.516598        -0.214838        -1.035337
 C         3.463150         0.907606        -0.501687
 C         3.576819         2.008538        -1.519786
 C         2.638598         3.145255        -0.879370
 O         1.761806         2.470296         0.011885
 C         2.291355         1.324354         0.421591
 H        -0.495241        -0.220427         0.813806
 H        -0.513969         1.011247        -0.438731
 H        -0.355871        -0.719586        -0.980247
 H         2.383387        -0.594445        -2.061041
 H         4.313554         0.704383         0.110601
 H         4.630221         2.379301        -1.523254
 H         3.250478         1.743247        -2.496370
 H         3.364375         3.806190        -0.346774
 H         1.925022         3.836679        -1.443630
 H         2.353761         1.338144         1.524424
