19
Iteration:  3669
 C        -0.161523        -0.131788        -0.052912
 C         1.349228         0.151496        -0.152021
 O         2.295814        -1.114643         0.054815
 C         2.482935        -0.272329        -1.004551
 C         3.356628         0.867687        -0.601713
 C         3.587551         2.088401        -1.486369
 C         2.809762         3.214607        -0.784546
 O         1.770573         2.571168        -0.058792
 C         2.265866         1.263256         0.364924
 H        -0.501786        -0.234594         0.975801
 H        -0.709960         0.681432        -0.587578
 H        -0.468210        -1.045531        -0.626431
 H         2.397642        -0.636712        -2.010470
 H         4.277193         0.422676        -0.230674
 H         4.620270         2.068700        -1.737429
 H         2.929854         1.847609        -2.422669
 H         3.427755         3.757118        -0.060591
 H         2.403665         3.980311        -1.465400
 H         2.507398         1.127146         1.457297
