19
Iteration:  3528charge 0 multiplicity 1
 C        -0.080001         0.116285        -0.259151
 C         1.454123         0.147226        -0.170012
 O         2.233830        -1.148876         0.121899
 C         2.581016        -0.368431        -0.975188
 C         3.524731         0.832074        -0.563003
 C         3.381302         2.044195        -1.622615
 C         2.626586         3.155567        -0.878053
 O         1.791506         2.559889         0.166762
 C         2.252886         1.202281         0.430733
 H        -0.299031         0.381719         0.823387
 H        -0.317246         0.935184        -0.938270
 H        -0.604352        -0.817185        -0.648414
 H         2.642660        -0.858890        -1.914322
 H         4.547486         0.695752        -0.162864
 H         4.400900         2.265320        -1.725383
 H         2.933422         1.891109        -2.591187
 H         3.300928         3.851037        -0.330395
 H         2.056754         3.797876        -1.596354
 H         2.275762         1.169900         1.544875
