19
Iteration:  1356
 C        -0.090049        -0.019540        -0.146768
 C         1.379549         0.140665        -0.068154
 O         2.126493        -1.117397         0.039473
 C         2.445174        -0.244743        -1.094259
 C         3.452438         0.817097        -0.546687
 C         3.746749         2.162834        -1.374193
 C         2.545291         3.056691        -1.076953
 O         1.829684         2.538637         0.129224
 C         2.369688         1.286806         0.449836
 H        -0.592780        -0.278294         0.791252
 H        -0.656938         0.835428        -0.543730
 H        -0.445178        -0.744082        -0.908297
 H         2.317437        -0.632525        -2.064718
 H         4.381971         0.542732        -0.110933
 H         4.767900         2.448752        -1.099461
 H         3.767318         1.924427        -2.503797
 H         2.711471         4.125132        -1.026971
 H         1.902038         2.806379        -1.889805
 H         2.592562         1.280081         1.575532
