19
Iteration:   872charge 0 multiplicity 1
 C        -0.108450         0.195983        -0.246423
 C         1.362197         0.172331        -0.307834
 O         2.155147        -1.010378         0.105421
 C         2.553962        -0.248056        -1.126994
 C         3.479697         0.791879        -0.550994
 C         3.633821         2.097457        -1.325924
 C         2.323269         2.871754        -1.097579
 O         1.987130         2.535745         0.275437
 C         2.412232         1.192582         0.460604
 H        -0.384272         0.408155         0.914090
 H        -0.587973         1.104345        -0.685236
 H        -0.620456        -0.812230        -0.412889
 H         2.631210        -0.816811        -2.134918
 H         4.426224         0.339260        -0.120301
 H         4.628517         2.579474        -0.934037
 H         3.659543         1.853410        -2.409358
 H         2.348402         3.986912        -1.138853
 H         1.470464         2.503255        -1.736156
 H         2.509322         1.009412         1.536272
