19
Iteration:  2985
 C        -0.061871         0.073036        -0.206610
 C         1.398454         0.020364        -0.071266
 O         2.178102        -1.088476         0.082830
 C         2.499151        -0.264286        -1.046732
 C         3.450131         0.856649        -0.590263
 C         3.557804         2.150685        -1.527542
 C         2.549315         3.094328        -0.957835
 O         1.816782         2.527898         0.141601
 C         2.348792         1.175917         0.450329
 H        -0.640703        -0.000152         0.736824
 H        -0.298145         0.972081        -0.658828
 H        -0.263552        -0.702028        -1.009256
 H         2.412472        -0.671586        -2.084450
 H         4.350690         0.513549        -0.096772
 H         4.536968         2.614508        -1.284609
 H         3.601013         1.694429        -2.543293
 H         3.220056         3.865999        -0.474998
 H         2.008058         3.610729        -1.672499
 H         2.480302         1.231488         1.527369
