19
Iteration:  3888
 C        -0.030493         0.100345        -0.250130
 C         1.482806         0.112226        -0.146072
 O         2.277681        -1.144924         0.168516
 C         2.522106        -0.298417        -1.038347
 C         3.359282         0.853161        -0.616978
 C         3.368918         2.025539        -1.550131
 C         2.751276         3.277335        -0.749822
 O         1.737394         2.458623        -0.023691
 C         2.327787         1.199072         0.488329
 H        -0.483823         0.434876         0.699836
 H        -0.429266         0.901815        -0.966802
 H        -0.497830        -0.820915        -0.589329
 H         2.380097        -0.813984        -1.980183
 H         4.316934         0.546082        -0.185025
 H         4.370238         2.265094        -1.947254
 H         2.683741         1.751245        -2.404598
 H         3.440256         3.835125        -0.065225
 H         2.159095         3.952664        -1.391901
 H         2.671705         1.135496         1.499659
