19
Iteration:   557
 C         0.015702         0.212425        -0.139212
 C         1.440063         0.187048        -0.296989
 O         1.966929        -1.080981         0.017228
 C         2.560567        -0.267265        -1.020074
 C         3.532534         0.768472        -0.643642
 C         3.649441         2.088961        -1.389453
 C         2.288481         2.901455        -1.104360
 O         1.967881         2.553790         0.274697
 C         2.365690         1.211003         0.484967
 H        -0.113454        -0.390313         0.718976
 H        -0.266139         1.181343         0.073329
 H        -0.750330        -0.087464        -0.794811
 H         2.628702        -0.791206        -1.995498
 H         4.460866         0.359126        -0.217561
 H         4.407370         2.694688        -0.859253
 H         4.027766         2.062469        -2.380950
 H         2.602912         3.926924        -1.008627
 H         1.610884         2.721377        -1.847258
 H         2.433039         0.976852         1.572606
