19
Iteration:  3998charge 0 multiplicity 1
 C         0.005322         0.024966        -0.113279
 C         1.459315         0.151921        -0.082933
 O         2.129225        -1.072698        -0.027746
 C         2.413993        -0.173241        -1.163738
 C         3.413264         0.816808        -0.566646
 C         3.732098         2.122540        -1.317375
 C         2.361941         2.953811        -1.189560
 O         1.944813         2.557413         0.197719
 C         2.321387         1.208326         0.526787
 H        -0.385458        -0.742791         0.723550
 H        -0.345448         1.138999         0.061666
 H        -0.471159        -0.263828        -1.043387
 H         2.170328        -0.541389        -2.085267
 H         4.385039         0.371834        -0.302791
 H         4.347216         2.736294        -0.611258
 H         4.293952         1.922961        -2.258215
 H         2.485868         4.072555        -1.257698
 H         1.692785         2.580634        -2.030487
 H         2.388186         1.153400         1.593353
