19
Iteration:  3080
 C        -0.036295        -0.028473        -0.236908
 C         1.424403         0.135415        -0.124538
 O         2.211301        -1.089165         0.119894
 C         2.433764        -0.247527        -1.074754
 C         3.329892         0.799886        -0.615791
 C         3.626352         2.065771        -1.415625
 C         2.531334         3.098452        -0.971742
 O         1.853754         2.581707         0.126423
 C         2.351791         1.277514         0.468991
 H        -0.365616        -0.232825         0.795549
 H        -0.546981         0.915466        -0.507133
 H        -0.424517        -0.752649        -1.022814
 H         2.411895        -0.778027        -2.039557
 H         4.327063         0.285394        -0.404146
 H         4.546962         2.526529        -0.983413
 H         3.689679         2.011472        -2.458938
 H         3.007528         4.040628        -0.688991
 H         1.694359         3.264993        -1.747912
 H         2.912615         1.072223         1.393092
