19
Iteration:  2092
 C        -0.064339         0.123667        -0.280286
 C         1.441607         0.115288        -0.172139
 O         2.140798        -1.033820         0.115942
 C         2.517372        -0.296434        -1.105865
 C         3.487421         0.818174        -0.593936
 C         3.663829         2.139415        -1.334897
 C         2.303153         2.968479        -1.089745
 O         2.011353         2.551285         0.186989
 C         2.294939         1.187030         0.524303
 H        -0.497469        -0.112978         0.757718
 H        -0.512155         1.161089        -0.589331
 H        -0.432741        -0.663748        -0.919664
 H         2.431966        -0.856535        -2.082129
 H         4.409218         0.369575        -0.191730
 H         4.409364         2.773447        -0.841596
 H         3.820229         2.046289        -2.426871
 H         2.474083         4.094099        -1.081808
 H         1.517215         2.757482        -1.797096
 H         2.456402         0.930112         1.589082
