19
Iteration:  4326
 C        -0.091765         0.057986        -0.165230
 C         1.390606         0.064629        -0.120909
 O         2.203010        -1.189231        -0.026836
 C         2.451909        -0.206777        -1.092801
 C         3.429742         0.845029        -0.593103
 C         3.703086         2.194777        -1.368879
 C         2.448596         3.035199        -1.024751
 O         1.904228         2.543015         0.201163
 C         2.309757         1.252396         0.495439
 H        -0.597012        -0.404697         0.771974
 H        -0.426654         1.103191        -0.371615
 H        -0.378374        -0.565652        -0.986453
 H         2.260131        -0.569304        -2.117316
 H         4.422903         0.436748        -0.385532
 H         4.654987         2.554773        -0.955410
 H         3.866486         1.989603        -2.402847
 H         2.671562         4.130506        -0.851659
 H         1.707526         2.980491        -1.920320
 H         2.631924         1.205622         1.504467
