19
Iteration:  4701
 C        -0.009115         0.228087        -0.361459
 C         1.488313         0.098636        -0.142672
 O         2.187927        -1.212969         0.137367
 C         2.600021        -0.399567        -0.991853
 C         3.361489         0.903808        -0.616459
 C         3.356055         2.144663        -1.605885
 C         2.600372         3.093657        -0.766658
 O         1.837463         2.501783         0.178740
 C         2.335233         1.210820         0.454460
 H        -0.409087         0.131319         0.678265
 H        -0.132598         1.292698        -0.762383
 H        -0.461303        -0.497630        -0.989760
 H         2.560520        -0.997378        -1.831409
 H         4.389772         0.739088        -0.208978
 H         4.420257         2.305630        -2.028617
 H         2.826341         1.852389        -2.564458
 H         3.205362         3.893101        -0.355919
 H         1.894908         3.648351        -1.453278
 H         2.740869         1.085702         1.461347
