19
Iteration:  1956charge 0 multiplicity 1
 C        -0.037426         0.049001        -0.331600
 C         1.378108         0.226251        -0.130098
 O         2.115584        -1.079420         0.045518
 C         2.454631        -0.130150        -1.053986
 C         3.500306         0.877745        -0.471204
 C         3.682564         2.051983        -1.387607
 C         2.344386         2.871807        -1.115043
 O         2.003923         2.552629         0.215164
 C         2.353804         1.229594         0.521786
 H        -0.405329        -0.397123         0.613254
 H        -0.808644         0.814962        -0.379795
 H        -0.130369        -0.732597        -1.200006
 H         2.516466        -0.528007        -2.085915
 H         4.458221         0.429239        -0.163532
 H         4.463962         2.694003        -1.162701
 H         3.787428         1.828416        -2.432192
 H         2.391009         3.925160        -1.015095
 H         1.502444         2.643317        -1.707164
 H         2.433116         1.086708         1.609720
