19
Iteration:   477
 C        -0.090749         0.145730        -0.150605
 C         1.391607         0.166334        -0.112714
 O         2.019222        -1.156294        -0.027777
 C         2.453620        -0.205460        -1.168804
 C         3.468063         0.827365        -0.585797
 C         3.716822         2.127397        -1.340201
 C         2.386848         2.913618        -1.111104
 O         2.021860         2.561733         0.251609
 C         2.420490         1.231757         0.511410
 H        -0.494237         0.252245         0.873733
 H        -0.520164         1.002285        -0.640293
 H        -0.347886        -0.829746        -0.559414
 H         2.298344        -0.650145        -2.155539
 H         4.353450         0.253157        -0.167610
 H         4.468957         2.665043        -0.750722
 H         4.053606         2.141023        -2.432352
 H         2.420945         3.997116        -1.232449
 H         1.779479         2.624458        -1.963086
 H         2.602678         1.020815         1.570838
