19
Iteration:  4283
 C        -0.096022        -0.014408        -0.091910
 C         1.382865         0.217323        -0.221260
 O         2.112491        -1.092159        -0.176628
 C         2.491456        -0.101443        -1.126348
 C         3.462367         0.918225        -0.490455
 C         3.770303         2.179775        -1.318303
 C         2.357326         2.764027        -1.120412
 O         2.095212         2.586188         0.262754
 C         2.210705         1.199043         0.551621
 H        -0.120876        -0.179637         1.053605
 H        -0.575739         0.912103        -0.305644
 H        -0.519310        -0.836468        -0.572019
 H         2.552386        -0.298161        -2.223119
 H         4.231613         0.351403         0.028017
 H         4.554168         2.795602        -0.885603
 H         3.943791         2.022006        -2.341653
 H         2.077406         3.758707        -1.517327
 H         1.693750         2.083251        -1.756602
 H         2.131480         0.987891         1.572122
