19
Iteration:  3276charge 0 multiplicity 1
 C        -0.057745        -0.138610        -0.327813
 C         1.335983         0.187638        -0.163645
 O         2.209300        -1.123028         0.098803
 C         2.427665        -0.230722        -1.066289
 C         3.399010         0.803300        -0.501640
 C         3.513600         2.074538        -1.453724
 C         2.518122         3.085660        -1.067917
 O         2.077836         2.722408         0.283075
 C         2.291870         1.263562         0.506341
 H        -0.451416        -0.470986         0.604426
 H        -0.758594         0.546075        -0.705850
 H        -0.134783        -1.061345        -0.996246
 H         2.150312        -0.680929        -2.059732
 H         4.418731         0.486866        -0.277856
 H         4.605279         2.451544        -1.336884
 H         3.565611         1.747327        -2.545649
 H         2.850149         4.114947        -1.120709
 H         1.615408         3.078093        -1.649402
 H         2.640428         1.109148         1.514915
