19
Iteration:  2791
 C        -0.063664        -0.124857        -0.133109
 C         1.370855         0.067486        -0.200913
 O         2.188330        -1.072999         0.112282
 C         2.518119        -0.270719        -1.036811
 C         3.409208         0.836630        -0.556403
 C         3.537364         2.056623        -1.602200
 C         2.801301         3.199145        -0.703021
 O         1.791884         2.611447        -0.037944
 C         2.214292         1.291561         0.421164
 H        -0.585713        -0.179373         0.883487
 H        -0.512362         0.578109        -0.838544
 H        -0.160370        -1.189946        -0.561226
 H         2.502717        -0.688992        -2.103345
 H         4.221418         0.506571         0.010035
 H         4.539453         2.393277        -1.867750
 H         2.929582         1.829994        -2.467126
 H         3.621084         3.688702        -0.028161
 H         2.309966         4.052439        -1.362868
 H         2.229696         1.172006         1.505612
