19
Iteration:  2335
 C        -0.029052         0.276710        -0.317920
 C         1.481401         0.069054        -0.118368
 O         2.141841        -1.148277         0.138890
 C         2.544334        -0.271021        -1.110202
 C         3.529550         0.871186        -0.553696
 C         3.571604         2.171012        -1.402010
 C         2.346599         2.905764        -1.052242
 O         1.882506         2.510775         0.196652
 C         2.367072         1.216596         0.498665
 H        -0.649469        -0.104107         0.523569
 H        -0.285646         1.324665        -0.298977
 H        -0.479974        -0.108683        -1.383375
 H         2.333845        -0.824733        -2.024486
 H         4.433877         0.436482        -0.077307
 H         4.497298         2.485181        -1.048490
 H         3.902695         2.060492        -2.421674
 H         2.376211         3.996561        -0.938055
 H         1.572342         2.667386        -1.877406
 H         2.407384         0.836647         1.483364
