19
Iteration:    48charge 0 multiplicity 1
 C        -0.107969         0.234361        -0.175098
 C         1.390070         0.088960        -0.234794
 O         2.136204        -1.068691         0.094812
 C         2.506987        -0.241283        -1.156538
 C         3.387763         0.838566        -0.518869
 C         3.618542         2.091030        -1.442472
 C         2.466473         2.976864        -1.094012
 O         2.074157         2.536766         0.252640
 C         2.262561         1.125067         0.492520
 H        -0.384546        -0.179811         0.799343
 H        -0.408790         1.312797        -0.125879
 H        -0.667221        -0.352118        -0.932867
 H         2.657900        -0.875825        -2.109918
 H         4.369451         0.411058        -0.057317
 H         4.613898         2.559391        -1.163737
 H         3.644553         1.878912        -2.517071
 H         2.728944         4.069854        -0.977704
 H         1.647515         2.853601        -1.813923
 H         2.375070         0.914444         1.522895
