19
Iteration:  1643
 C        -0.114077         0.078609        -0.161901
 C         1.400574         0.099062         0.005239
 O         2.189235        -1.133734        -0.020225
 C         2.434731        -0.204182        -1.134515
 C         3.473463         0.825141        -0.478601
 C         3.715054         2.118109        -1.286255
 C         2.509694         3.022119        -1.130712
 O         1.813746         2.537642         0.052556
 C         2.365178         1.259983         0.447762
 H        -0.422041        -0.262652         0.879492
 H        -0.540198         1.049150        -0.534149
 H        -0.352165        -0.810816        -0.714194
 H         2.188409        -0.676697        -2.151311
 H         4.202946         0.317231         0.146440
 H         4.527436         2.701738        -0.878652
 H         3.885522         1.847100        -2.261294
 H         2.780305         4.099661        -0.983770
 H         1.874194         2.997757        -2.063420
 H         2.623726         1.332221         1.536101
