19
Iteration:  4594
 C        -0.090996        -0.087499        -0.105127
 C         1.338599         0.167598        -0.154013
 O         2.156767        -1.008529        -0.012432
 C         2.415058        -0.177036        -1.197850
 C         3.458513         0.820600        -0.607538
 C         3.738130         2.180117        -1.289021
 C         2.467547         2.935674        -1.054277
 O         2.017955         2.568026         0.209804
 C         2.272672         1.253076         0.446065
 H        -0.308399        -0.452066         0.872192
 H        -0.752794         0.896060        -0.153571
 H        -0.295544        -0.829874        -0.847831
 H         2.249114        -0.653848        -2.120368
 H         4.364285         0.209419        -0.363521
 H         4.530026         2.660873        -0.815297
 H         3.822936         1.907667        -2.304316
 H         2.760002         3.948761        -1.027917
 H         1.635630         2.646285        -1.728840
 H         2.242387         1.058507         1.499586
