19
Iteration:  1856charge 0 multiplicity 1
 C        -0.098294         0.096102        -0.164282
 C         1.421776         0.106818        -0.051546
 O         2.166455        -1.109731        -0.083423
 C         2.411641        -0.159047        -1.133821
 C         3.485384         0.880726        -0.487840
 C         3.722193         2.152755        -1.256110
 C         2.412746         2.878392        -1.175705
 O         1.941006         2.591885         0.143836
 C         2.333287         1.206936         0.549587
 H        -0.782797        -0.085913         0.718502
 H        -0.412645         1.001777        -0.735691
 H        -0.376511        -0.877591        -0.847447
 H         2.463328        -0.775892        -2.118899
 H         4.387832         0.289517        -0.137313
 H         4.420353         2.706730        -0.679871
 H         4.066142         1.924672        -2.312964
 H         2.339219         3.974356        -1.276216
 H         1.687967         2.432336        -1.936218
 H         2.459358         1.193560         1.626006
