19
Iteration:  3890
 C        -0.039171         0.082651        -0.250628
 C         1.469806         0.096716        -0.148884
 O         2.272576        -1.145734         0.163932
 C         2.515074        -0.290161        -1.029339
 C         3.362977         0.868418        -0.616403
 C         3.388908         2.027857        -1.554649
 C         2.742697         3.272248        -0.752121
 O         1.747361         2.454712        -0.017780
 C         2.326644         1.206950         0.484829
 H        -0.544767         0.427034         0.707984
 H        -0.377496         0.859987        -0.938593
 H        -0.520247        -0.745135        -0.579964
 H         2.345484        -0.771092        -1.929512
 H         4.331578         0.599150        -0.199986
 H         4.420522         2.301836        -1.974304
 H         2.699200         1.778418        -2.424334
 H         3.480840         3.859926        -0.094116
 H         2.157467         3.859446        -1.393987
 H         2.717100         1.147456         1.523112
