19
Iteration:   396charge 0 multiplicity 1
 C        -0.092816         0.132967        -0.289558
 C         1.434512         0.128598         0.028562
 O         2.080699        -1.165399        -0.058048
 C         2.389805        -0.215181        -1.016746
 C         3.407541         0.906276        -0.519127
 C         3.624023         2.029706        -1.492149
 C         2.464391         2.982575        -1.072764
 O         1.979491         2.560844         0.260191
 C         2.462195         1.238083         0.519917
 H        -0.489428        -0.446486         0.519782
 H        -0.351187         1.188637        -0.434545
 H        -0.144711        -0.387039        -1.264514
 H         2.159556        -0.505563        -2.075359
 H         4.307678         0.521693        -0.295305
 H         4.505898         2.639399        -1.221636
 H         3.639908         1.746715        -2.513911
 H         2.825101         4.004901        -0.911249
 H         1.725378         2.859710        -1.823933
 H         2.813458         1.057235         1.526369
