19
Iteration:  4395charge 0 multiplicity 1
 C        -0.023939         0.093350        -0.262799
 C         1.434256         0.077365        -0.154075
 O         2.125199        -1.114096        -0.061143
 C         2.619322        -0.189444        -1.083388
 C         3.490345         0.886298        -0.521624
 C         3.503332         2.027106        -1.505034
 C         2.513739         3.103317        -0.923507
 O         1.917996         2.518805         0.290313
 C         2.255509         1.192436         0.515291
 H        -0.474033        -0.019833         0.828743
 H        -0.325235         1.039447        -0.554450
 H        -0.627369        -0.766268        -0.773112
 H         2.701290        -0.685985        -2.045656
 H         4.543426         0.494491        -0.215047
 H         4.454476         2.430098        -1.708263
 H         3.161072         1.752000        -2.501987
 H         2.843947         4.180193        -0.707060
 H         1.615837         3.148554        -1.728375
 H         2.141696         1.109531         1.593300
