19
Iteration:  4710
 C         0.052199         0.206777        -0.336510
 C         1.478912         0.026961        -0.085863
 O         2.183445        -1.215287         0.120069
 C         2.606045        -0.368974        -1.037953
 C         3.404717         0.884676        -0.573390
 C         3.287111         2.041623        -1.606059
 C         2.680159         3.175233        -0.823998
 O         1.776408         2.567631         0.197066
 C         2.340688         1.209391         0.430103
 H        -0.683043         0.204991         0.524924
 H        -0.132353         1.141058        -0.683275
 H        -0.405188        -0.423878        -1.068053
 H         2.537725        -0.754667        -2.039251
 H         4.451992         0.806679        -0.294068
 H         4.330714         2.463909        -1.816193
 H         2.685504         1.732741        -2.497663
 H         3.446768         3.822909        -0.311597
 H         1.999765         3.686466        -1.384357
 H         2.443762         1.008894         1.535482
