19
Iteration:  2422charge 0 multiplicity 1
 C        -0.063240         0.025306        -0.234799
 C         1.445174         0.168080        -0.184912
 O         2.159571        -1.084786         0.045327
 C         2.442981        -0.182488        -1.133729
 C         3.420971         0.813563        -0.582664
 C         3.730344         2.123187        -1.243186
 C         2.366622         2.837037        -1.205902
 O         1.980192         2.636124         0.310376
 C         2.311353         1.285866         0.465881
 H        -0.387610         0.072639         0.817910
 H        -0.482360         0.941161        -0.640828
 H        -0.527096        -0.905330        -0.786348
 H         2.287932        -0.694706        -2.113313
 H         4.219191         0.184323        -0.191310
 H         4.364013         2.687702        -0.572963
 H         4.112997         2.066214        -2.361735
 H         2.376140         3.922369        -1.294496
 H         1.698039         2.406200        -1.989713
 H         2.489720         1.102625         1.507033
