19
Iteration:  3333charge 0 multiplicity 1
 C        -0.052403         0.192086        -0.152109
 C         1.458633         0.184173        -0.224627
 O         2.168126        -1.069091        -0.003296
 C         2.581408        -0.320542        -1.104100
 C         3.443710         0.771247        -0.523402
 C         3.604902         2.103702        -1.375531
 C         2.263168         2.885793        -1.081602
 O         1.960351         2.580202         0.224365
 C         2.280676         1.219620         0.496107
 H        -0.534663         0.002763         0.824305
 H        -0.229210         1.178836        -0.479994
 H        -0.324358        -0.498120        -0.935904
 H         2.667910        -0.876330        -2.024518
 H         4.521203         0.505537        -0.202667
 H         4.390341         2.636386        -0.655043
 H         3.985654         2.023707        -2.413482
 H         2.492598         3.967892        -1.170725
 H         1.451735         2.587457        -1.726700
 H         2.792004         1.304371         1.460439
