19
Iteration:  4971
 C        -0.123355         0.039314        -0.158076
 C         1.350687         0.169771        -0.245962
 O         2.143752        -1.088223        -0.017448
 C         2.486042        -0.215060        -1.148830
 C         3.490209         0.821103        -0.549401
 C         3.634838         2.127305        -1.374714
 C         2.344890         2.909302        -1.066359
 O         2.064487         2.637061         0.354508
 C         2.372807         1.213404         0.455666
 H        -0.571914        -0.227599         0.862437
 H        -0.460841         0.987114        -0.420242
 H        -0.436636        -0.604508        -0.917829
 H         2.776510        -0.467108        -2.151492
 H         4.401471         0.305792        -0.245950
 H         4.565550         2.700538        -1.060237
 H         3.758519         1.918039        -2.393824
 H         2.180205         4.018043        -1.127295
 H         1.526152         2.422828        -1.722248
 H         2.493805         0.834232         1.469914
