19
Iteration:   277
 C        -0.120966         0.237321        -0.211140
 C         1.420012         0.141842        -0.045202
 O         2.111559        -1.156404        -0.060388
 C         2.477566        -0.162798        -1.082859
 C         3.521658         0.711625        -0.571025
 C         3.639986         2.137995        -1.407533
 C         2.392015         2.886969        -1.084506
 O         1.928121         2.566900         0.268242
 C         2.448036         1.232824         0.531672
 H        -0.591110         0.202464         0.764249
 H        -0.337679         1.175510        -0.746187
 H        -0.443629        -0.602588        -0.847227
 H         2.118539        -0.445836        -2.095735
 H         4.441208         0.146223        -0.293722
 H         4.614796         2.563769        -1.138733
 H         3.619323         1.809098        -2.477819
 H         2.646846         3.976340        -1.119112
 H         1.613850         2.617691        -1.863624
 H         2.578638         1.203103         1.575283
