19
Iteration:   491
 C        -0.019425         0.128317        -0.169780
 C         1.454130         0.257483        -0.014491
 O         2.014202        -1.055262        -0.135181
 C         2.335191        -0.192499        -1.065752
 C         3.417196         0.776567        -0.579352
 C         3.713560         2.132975        -1.314098
 C         2.421063         2.824164        -1.103310
 O         1.959743         2.511737         0.203870
 C         2.464428         1.231984         0.520573
 H        -0.602931         0.107937         0.744242
 H        -0.313805         0.872689        -0.876508
 H        -0.140071        -0.819475        -0.736308
 H         2.388297        -0.501914        -2.196977
 H         4.469332         0.431464        -0.255346
 H         4.632564         2.571105        -0.867033
 H         3.890009         1.920926        -2.369090
 H         2.400634         3.907278        -1.123091
 H         1.572287         2.430548        -1.619354
 H         2.914531         1.314585         1.545369
