19
Iteration:  4741charge 0 multiplicity 1
 C        -0.065858         0.036648        -0.341273
 C         1.450968         0.166102        -0.137371
 O         2.229339        -1.088924         0.075107
 C         2.538359        -0.287614        -1.008888
 C         3.429244         0.907871        -0.526575
 C         3.231782         1.951598        -1.582488
 C         2.811759         3.105345        -0.758307
 O         1.813692         2.524203         0.131818
 C         2.352712         1.249238         0.469259
 H        -0.611959        -0.371571         0.606041
 H        -0.554303         0.960443        -0.615789
 H        -0.143002        -0.744054        -1.156543
 H         2.577898        -0.499936        -2.101606
 H         4.444672         0.755571        -0.206667
 H         4.101713         2.286137        -2.175304
 H         2.432147         1.842514        -2.322591
 H         3.655613         3.763594        -0.304826
 H         2.249268         3.778461        -1.393470
 H         2.405214         1.155560         1.622197
