19
Iteration:  2911
 C        -0.079103         0.001432        -0.215916
 C         1.444927         0.165667        -0.175415
 O         2.189786        -1.145979         0.078896
 C         2.563991        -0.308062        -1.040079
 C         3.507354         0.860859        -0.443441
 C         3.393574         2.034341        -1.538494
 C         2.679648         3.161431        -0.909873
 O         1.813725         2.559722         0.127287
 C         2.249655         1.252867         0.388798
 H        -0.502053        -0.431062         0.705617
 H        -0.410378         0.986177        -0.158112
 H        -0.457134        -0.441216        -1.122995
 H         2.560340        -0.722120        -2.069881
 H         4.385301         0.553551        -0.010118
 H         4.421758         2.373940        -1.738536
 H         3.000201         1.495860        -2.493321
 H         3.383120         3.784769        -0.447363
 H         2.096044         3.895243        -1.533912
 H         2.575311         1.304583         1.413091
