19
Iteration:  4183charge 0 multiplicity 1
 C        -0.019411         0.046812        -0.275347
 C         1.429349         0.077161        -0.269624
 O         2.170760        -1.090204         0.021407
 C         2.532525        -0.301015        -1.123642
 C         3.476745         0.825107        -0.491567
 C         3.555882         2.001414        -1.490380
 C         2.493304         3.125781        -0.925629
 O         1.889103         2.656927         0.344425
 C         2.264836         1.233586         0.437213
 H        -0.311170        -0.334256         0.694877
 H        -0.254952         1.145750        -0.410250
 H        -0.461363        -0.652013        -0.912698
 H         2.527536        -0.830643        -2.119276
 H         4.395270         0.513775         0.072442
 H         4.505074         2.490490        -1.719801
 H         3.092239         1.730218        -2.423596
 H         2.816824         4.148679        -0.568586
 H         1.718557         2.966603        -1.660155
 H         2.449558         1.095697         1.494847
