19
Iteration:  1478charge 0 multiplicity 1
 C        -0.087433         0.256499        -0.360558
 C         1.397776         0.130645        -0.181030
 O         2.160696        -1.099196         0.045169
 C         2.604246        -0.305305        -1.079567
 C         3.510773         0.852789        -0.441886
 C         3.571508         2.131495        -1.414369
 C         2.224107         2.802479        -1.109984
 O         2.089622         2.620812         0.284784
 C         2.343444         1.208360         0.537582
 H        -0.583117         0.315927         0.625042
 H        -0.392079         1.143621        -0.923732
 H        -0.588914        -0.595573        -0.876661
 H         2.769894        -0.999938        -1.947577
 H         4.412138         0.447621        -0.000977
 H         4.366419         2.856276        -1.182932
 H         3.567077         1.775339        -2.494676
 H         2.140654         3.928693        -1.234606
 H         1.471264         2.171586        -1.667130
 H         2.302612         1.135057         1.658073
