19
Iteration:    75charge 0 multiplicity 1
 C        -0.116317         0.174630        -0.360442
 C         1.406025         0.210690         0.067411
 O         2.232563        -1.112053        -0.079509
 C         2.297007        -0.182814        -1.080755
 C         3.486537         0.738384        -0.544512
 C         3.645654         1.979028        -1.441746
 C         2.437146         2.887823        -1.000283
 O         1.967791         2.608431         0.250724
 C         2.424393         1.288894         0.524515
 H        -0.710176        -0.050792         0.570649
 H        -0.444097         1.166956        -0.639621
 H        -0.276921        -0.685721        -1.039284
 H         2.013995        -0.499112        -2.011508
 H         4.291830         0.300309        -0.041620
 H         4.555982         2.470545        -1.220421
 H         3.560185         1.887667        -2.556795
 H         2.657997         3.928164        -1.045616
 H         1.626740         2.603545        -1.739864
 H         2.792551         1.223214         1.648578
