19
Iteration:  4052charge 0 multiplicity 1
 C         0.060093         0.343889        -0.168354
 C         1.508467         0.135232        -0.173501
 O         2.129385        -1.228230        -0.135957
 C         2.577060        -0.085314        -1.117551
 C         3.471407         0.845281        -0.414879
 C         3.531103         2.082721        -1.316890
 C         2.203972         2.708088        -1.105007
 O         1.929465         2.536453         0.219314
 C         2.388598         1.211853         0.526412
 H        -0.191417         0.478231         0.936976
 H        -0.173481         1.423578        -0.564257
 H        -0.444650        -0.426261        -0.707323
 H         2.603951        -0.439102        -2.070839
 H         4.492442         0.563998        -0.140453
 H         4.176162         2.859395        -0.927396
 H         3.701663         1.902804        -2.361882
 H         2.382903         3.813103        -1.331469
 H         1.471623         2.246047        -1.881944
 H         2.385422         1.180444         1.580739
