19
Iteration:  1989charge 0 multiplicity 1
 C        -0.062850         0.109535        -0.411475
 C         1.394798         0.099541        -0.191047
 O         2.184731        -1.097799         0.150625
 C         2.499676        -0.318973        -1.041465
 C         3.405103         0.873907        -0.595802
 C         3.617288         2.065681        -1.433136
 C         2.258737         2.918281        -1.032927
 O         2.106093         2.672813         0.339842
 C         2.310449         1.288246         0.449475
 H        -0.453067        -0.176384         0.594193
 H        -0.464956         1.022333        -0.918181
 H        -0.445974        -0.814012        -1.055609
 H         2.749382        -0.786970        -1.986933
 H         4.342695         0.449633        -0.218082
 H         4.318054         2.503645        -0.795665
 H         4.082887         2.103083        -2.398193
 H         2.439933         3.959964        -1.163118
 H         1.451895         2.602909        -1.673938
 H         2.484942         0.952294         1.483902
