19
Iteration:  2240charge 0 multiplicity 1
 C        -0.018548         0.062306        -0.245061
 C         1.402525         0.164644        -0.140485
 O         2.130527        -1.076310        -0.020944
 C         2.434278        -0.216541        -1.169634
 C         3.470050         0.805519        -0.459599
 C         3.658413         2.115162        -1.315509
 C         2.339813         2.935211        -1.148131
 O         1.969401         2.574894         0.241518
 C         2.367145         1.199651         0.559583
 H        -0.501703         0.214895         0.702460
 H        -0.428383         0.893917        -0.786759
 H        -0.439742        -0.800110        -0.730283
 H         2.536610        -0.733627        -2.193010
 H         4.512928         0.534164        -0.144008
 H         4.606960         2.737758        -0.932237
 H         3.990026         1.909289        -2.401350
 H         2.378215         3.994806        -1.148013
 H         1.635354         2.609571        -1.909461
 H         2.499314         1.314718         1.672984
