19
Iteration:  2747
 C        -0.166825        -0.022251        -0.218203
 C         1.421090         0.074112        -0.028342
 O         2.234063        -1.117202         0.104232
 C         2.520610        -0.289796        -1.063152
 C         3.456279         0.856646        -0.589905
 C         3.620868         2.098057        -1.535810
 C         2.692419         3.215287        -0.850371
 O         1.795658         2.468447        -0.007911
 C         2.203536         1.284984         0.494763
 H        -0.695298        -0.518736         0.679588
 H        -0.462466         1.022083        -0.114632
 H        -0.558636        -0.436504        -1.225032
 H         2.493951        -0.824669        -2.084688
 H         4.419404         0.550174        -0.294807
 H         4.684733         2.352093        -1.566415
 H         3.256357         1.890222        -2.512846
 H         3.195771         4.026370        -0.222525
 H         2.008327         3.761717        -1.642477
 H         2.438137         1.391067         1.563397
