19
Iteration:  2709
 C        -0.029795         0.128283        -0.140187
 C         1.421096         0.045285        -0.159649
 O         2.187404        -1.101769         0.004591
 C         2.598158        -0.335862        -1.032644
 C         3.512010         0.826622        -0.515781
 C         3.553390         2.051099        -1.457639
 C         2.608689         3.154208        -0.896247
 O         1.704699         2.471123        -0.032960
 C         2.260064         1.327999         0.519117
 H        -0.333725        -0.465812         0.686358
 H        -0.497688         1.141337         0.001368
 H        -0.453480        -0.252882        -1.017198
 H         2.459852        -0.718989        -1.992550
 H         4.489871         0.598596         0.049634
 H         4.715031         2.262291        -1.612557
 H         3.203201         1.655276        -2.559838
 H         3.200538         3.995805        -0.371944
 H         1.938517         3.617287        -1.538310
 H         2.149762         1.324643         1.627057
