19
Iteration:  2272charge 0 multiplicity 1
 C        -0.089074        -0.003531        -0.321593
 C         1.367210         0.199908        -0.190477
 O         2.128852        -1.106052        -0.057828
 C         2.491276        -0.138740        -1.102362
 C         3.428821         0.883067        -0.386593
 C         3.653368         2.038679        -1.465667
 C         2.379564         2.832472        -1.134539
 O         2.056163         2.646554         0.344951
 C         2.347869         1.280777         0.612314
 H        -0.455570        -0.157612         0.695461
 H        -0.574523         0.865179        -0.752636
 H        -0.403922        -0.902376        -0.894809
 H         2.537764        -0.511877        -2.182431
 H         4.457715         0.820705         0.018607
 H         4.645755         2.628161        -1.278740
 H         3.685143         1.562687        -2.495816
 H         2.353939         3.878764        -1.181206
 H         1.584862         2.426395        -1.731345
 H         2.497208         1.082057         1.711978
