19
Iteration:  3325
 C        -0.019055         0.084866        -0.214232
 C         1.435194         0.205854        -0.208726
 O         2.162095        -1.058612         0.041785
 C         2.560109        -0.342747        -1.093698
 C         3.416861         0.803224        -0.616071
 C         3.610055         2.131149        -1.362654
 C         2.332481         2.898902        -1.098247
 O         1.992548         2.581077         0.254818
 C         2.306792         1.273206         0.516499
 H        -0.561321        -0.077556         0.766664
 H        -0.407190         1.172448        -0.407525
 H        -0.480068        -0.584917        -0.890724
 H         2.487632        -0.885778        -2.011570
 H         4.348146         0.444795        -0.061598
 H         4.458230         2.642580        -1.003837
 H         3.905811         1.913384        -2.364279
 H         2.379269         4.015830        -1.035906
 H         1.503564         2.785834        -1.818380
 H         2.420913         1.006699         1.636876
