19
Iteration:  2971
 C        -0.067536         0.076805        -0.260472
 C         1.439239         0.148971        -0.074007
 O         2.221692        -1.167860         0.108488
 C         2.472183        -0.310304        -1.062637
 C         3.415850         0.812476        -0.586338
 C         3.590100         2.089994        -1.492605
 C         2.567877         3.198538        -0.923015
 O         1.815672         2.491656         0.113059
 C         2.317788         1.271420         0.480035
 H        -0.595792        -0.294607         0.657968
 H        -0.383896         1.168515        -0.510038
 H        -0.446572        -0.604908        -1.094342
 H         2.478344        -0.900463        -1.988566
 H         4.467289         0.383103        -0.335250
 H         4.643924         2.398600        -1.563305
 H         3.235232         2.097388        -2.449795
 H         3.002052         4.136298        -0.487521
 H         1.705848         3.271246        -1.658115
 H         2.701209         1.149928         1.546271
