19
Iteration:  4513
 C        -0.046676         0.287668        -0.208043
 C         1.481877         0.184687        -0.091428
 O         2.143977        -1.128556        -0.179369
 C         2.577586        -0.153701        -1.084960
 C         3.582313         0.810556        -0.453102
 C         3.593354         2.121064        -1.402413
 C         2.271447         2.806759        -1.046977
 O         1.862446         2.466749         0.202003
 C         2.412992         1.184553         0.621354
 H        -0.557726        -0.002501         0.824316
 H        -0.301875         1.263113        -0.397852
 H        -0.662819        -0.355982        -0.906147
 H         2.518698        -0.184823        -2.198816
 H         4.502426         0.383814        -0.039325
 H         4.563574         2.639856        -1.387286
 H         3.603540         1.736676        -2.428431
 H         2.195030         3.901622        -1.227814
 H         1.395435         2.563186        -1.670616
 H         2.405311         1.183507         1.686327
