19
Iteration:  4657charge 0 multiplicity 1
 C        -0.010430         0.078704        -0.277541
 C         1.421791         0.119283        -0.168671
 O         2.206563        -1.108208         0.054998
 C         2.492786        -0.313323        -1.060167
 C         3.368662         0.857264        -0.594007
 C         3.516417         2.014215        -1.530670
 C         2.576653         3.142397        -0.904858
 O         1.889837         2.525644         0.266864
 C         2.321095         1.257241         0.495578
 H        -0.515309         0.022383         0.755398
 H        -0.552419         0.904157        -0.843682
 H        -0.395922        -0.804443        -0.757403
 H         2.544546        -0.658469        -2.067833
 H         4.372382         0.550980        -0.207229
 H         4.560968         2.518332        -1.705003
 H         3.228038         1.770066        -2.613667
 H         3.047914         4.090680        -0.589595
 H         1.687733         3.495029        -1.553989
 H         2.470863         1.004345         1.553346
