19
Iteration:   670charge 0 multiplicity 1
 C        -0.087240         0.271587        -0.200989
 C         1.398201         0.100448        -0.270753
 O         2.177764        -1.146313         0.125615
 C         2.530629        -0.296337        -1.200813
 C         3.478341         0.825266        -0.572751
 C         3.573861         2.058700        -1.278243
 C         2.291737         2.939351        -1.070016
 O         2.069391         2.612824         0.282908
 C         2.343683         1.215846         0.388994
 H        -0.228492         0.595967         0.863985
 H        -0.371225         1.050477        -1.041378
 H        -0.670425        -0.652149        -0.493694
 H         2.405602        -0.790534        -2.207244
 H         4.348995         0.289701        -0.188576
 H         4.465772         2.543350        -0.890542
 H         3.899931         1.865199        -2.371862
 H         2.392970         4.076051        -0.980292
 H         1.506748         2.536838        -1.635292
 H         2.185826         1.086800         1.496681
