19
Iteration:  1504charge 0 multiplicity 1
 C         0.006235         0.194847        -0.276356
 C         1.462888         0.174330        -0.207993
 O         2.095052        -1.103492         0.008815
 C         2.648331        -0.287439        -1.024984
 C         3.505996         0.868588        -0.506618
 C         3.551298         2.005612        -1.400423
 C         2.348496         2.912621        -1.093825
 O         1.910710         2.600121         0.244810
 C         2.301338         1.210860         0.504108
 H        -0.339813         0.282494         0.759779
 H        -0.535961         1.032645        -0.709408
 H        -0.491706        -0.705942        -0.520424
 H         2.649290        -0.851828        -2.011243
 H         4.486004         0.578808        -0.008384
 H         4.419691         2.651205        -1.089562
 H         3.548075         1.656794        -2.517802
 H         2.589976         3.972392        -0.972618
 H         1.636129         2.771530        -1.869656
 H         2.286080         1.157849         1.584744
