19
Iteration:  2579charge 0 multiplicity 1
 C        -0.072616        -0.073814        -0.267605
 C         1.405000         0.069874        -0.163648
 O         2.241072        -1.099687         0.219314
 C         2.549381        -0.278239        -1.000052
 C         3.378780         0.899902        -0.611345
 C         3.375258         2.085619        -1.622462
 C         2.949596         3.197629        -0.692716
 O         1.727600         2.572566        -0.052690
 C         2.159044         1.299774         0.426925
 H        -0.520400        -0.301692         0.726363
 H        -0.570394         0.766037        -0.891385
 H        -0.258413        -1.070685        -0.645766
 H         2.712185        -0.757369        -1.933019
 H         4.401387         0.637201        -0.215567
 H         4.486788         2.081395        -1.941083
 H         2.757090         1.690664        -2.342941
 H         3.614660         3.366392         0.144072
 H         2.669335         4.111644        -1.183674
 H         2.499211         0.953611         1.413478
