19
Iteration:  4627charge 0 multiplicity 1
 C        -0.147236        -0.120932        -0.186482
 C         1.401275         0.016331        -0.110099
 O         2.131368        -1.148704        -0.092729
 C         2.467288        -0.209351        -1.100923
 C         3.389693         0.873341        -0.516730
 C         3.599836         2.050229        -1.401782
 C         2.572267         3.097624        -0.966562
 O         1.994849         2.661314         0.206503
 C         2.359278         1.375870         0.511281
 H        -0.441481        -0.255570         0.822919
 H        -0.608545         0.875344        -0.691962
 H        -0.464884        -0.999726        -0.722894
 H         2.572002        -0.505337        -2.093031
 H         4.375836         0.465758        -0.180895
 H         4.506279         2.543645        -1.539838
 H         3.420070         1.684158        -2.389177
 H         2.966222         4.083174        -0.918334
 H         1.698751         3.215932        -1.748270
 H         2.482378         1.140901         1.528996
