19
Iteration:   651charge 0 multiplicity 1
 C        -0.090560         0.198666        -0.214169
 C         1.350303         0.226246        -0.230994
 O         2.107687        -1.011493         0.021079
 C         2.605584        -0.297260        -1.090765
 C         3.447316         0.796823        -0.531746
 C         3.653404         2.140201        -1.449063
 C         2.353349         2.866404        -1.068280
 O         2.043043         2.527804         0.333058
 C         2.294530         1.157428         0.468234
 H        -0.295588         0.428911         0.915001
 H        -0.629047         0.962481        -0.899531
 H        -0.634702        -0.769888        -0.484084
 H         2.616136        -1.041147        -1.915407
 H         4.442168         0.491686        -0.140460
 H         4.570238         2.678967        -1.146657
 H         3.721045         2.199744        -2.600545
 H         2.644250         3.903876        -1.154773
 H         1.514347         2.451796        -1.695361
 H         2.507988         0.818798         1.490837
