19
Iteration:  1545charge 0 multiplicity 1
 C        -0.124765         0.039697        -0.240769
 C         1.362960         0.039638         0.002611
 O         2.237562        -1.118245         0.058217
 C         2.432165        -0.256087        -1.058133
 C         3.406846         0.856807        -0.558082
 C         3.664740         2.125600        -1.424805
 C         2.572850         3.031207        -1.031681
 O         1.858593         2.560345         0.047409
 C         2.285503         1.300401         0.532009
 H        -0.552802        -0.221230         0.738676
 H        -0.405589         0.998029        -0.663459
 H        -0.286402        -0.703233        -0.966144
 H         2.400314        -0.862186        -2.050381
 H         4.429336         0.486420        -0.367046
 H         4.606507         2.496158        -0.959703
 H         3.877367         2.024103        -2.526856
 H         3.141110         3.989637        -0.760471
 H         1.752253         3.201765        -1.766608
 H         2.523398         1.312784         1.608844
