19
Iteration:   625charge 0 multiplicity 1
 C        -0.030085         0.080377        -0.277098
 C         1.392501         0.192091        -0.088509
 O         2.048863        -1.105092        -0.028933
 C         2.466097        -0.181815        -1.087715
 C         3.499944         0.749098        -0.466135
 C         3.626224         2.040616        -1.396945
 C         2.293110         2.972460        -1.079271
 O         2.066384         2.608481         0.259244
 C         2.414806         1.243165         0.519276
 H        -0.566326        -0.062970         0.667713
 H        -0.410284         1.012943        -0.832248
 H        -0.368412        -0.695469        -0.966275
 H         2.253859        -0.511375        -2.093098
 H         4.501525         0.395291        -0.179206
 H         4.562699         2.613037        -1.417268
 H         3.565608         1.673503        -2.445030
 H         2.636779         4.028381        -1.166728
 H         1.479229         2.683815        -1.668520
 H         2.785423         1.103991         1.570738
