19
Iteration:   527charge 0 multiplicity 1
 C        -0.105322         0.276724        -0.115438
 C         1.349386         0.103143        -0.095325
 O         2.207027        -1.126115        -0.126045
 C         2.492581        -0.183800        -1.122583
 C         3.407919         0.850595        -0.524084
 C         3.678381         2.078520        -1.342161
 C         2.339110         2.816002        -1.127230
 O         2.053460         2.576165         0.228159
 C         2.323689         1.188557         0.543538
 H        -0.608025         0.010982         0.860356
 H        -0.290115         1.396895        -0.364933
 H        -0.621691        -0.374836        -0.874325
 H         2.450001        -0.578818        -2.126543
 H         4.256263         0.436745        -0.042930
 H         4.557158         2.719818        -1.154972
 H         3.824056         1.722259        -2.362008
 H         2.538892         3.908933        -1.225502
 H         1.636453         2.417262        -1.932979
 H         2.499074         1.026434         1.619253
