19
Iteration:  1618charge 0 multiplicity 1
 C        -0.104944        -0.047504        -0.007491
 C         1.368833         0.119763        -0.180628
 O         2.177200        -1.162214        -0.033481
 C         2.500457        -0.208300        -1.155898
 C         3.441852         0.881336        -0.429388
 C         3.750307         2.087749        -1.341815
 C         2.616710         2.980141        -1.071526
 O         1.816800         2.612566         0.030988
 C         2.186925         1.342418         0.467917
 H        -0.187549        -0.517621         1.080125
 H        -0.405901         1.033944        -0.187309
 H        -0.548538        -0.845659        -0.731103
 H         2.494960        -0.576018        -2.211622
 H         4.213091         0.343887         0.107837
 H         4.694367         2.609425        -1.103837
 H         3.701959         1.820286        -2.471966
 H         3.048292         3.927259        -0.803046
 H         2.012824         3.191405        -1.976841
 H         2.178864         1.385809         1.585620
