19
Iteration:  3658charge 0 multiplicity 1
 C        -0.146853        -0.174042        -0.064880
 C         1.281303         0.152702        -0.252162
 O         2.255056        -1.096147         0.116872
 C         2.443989        -0.265329        -1.108873
 C         3.430603         0.926732        -0.545649
 C         3.571693         2.062779        -1.546156
 C         2.888225         3.205989        -0.771152
 O         1.803154         2.559034         0.014335
 C         2.212680         1.279362         0.366342
 H        -0.300255        -0.430168         1.009274
 H        -0.964140         0.556296        -0.273701
 H        -0.293127        -1.178011        -0.572705
 H         2.590390        -0.889771        -1.971038
 H         4.219762         0.520796         0.066230
 H         4.481715         2.516316        -1.870673
 H         3.016623         1.770028        -2.552180
 H         3.611197         3.797245        -0.214194
 H         2.315062         3.782618        -1.508830
 H         2.441316         1.340028         1.480691
