19
Iteration:  1451
 C         0.035483         0.204034        -0.447597
 C         1.437982         0.250928        -0.099720
 O         2.117195        -1.044107         0.133981
 C         2.450611        -0.198448        -1.106640
 C         3.540099         0.764268        -0.510649
 C         3.572629         2.079531        -1.439185
 C         2.202304         2.762025        -1.124690
 O         1.984277         2.570493         0.342964
 C         2.488360         1.240793         0.538847
 H        -0.649603        -0.047462         0.415715
 H        -0.349677         1.083247        -1.016568
 H        -0.068261        -0.583015        -1.219611
 H         2.313642        -0.778342        -2.016383
 H         4.411516         0.119790        -0.239339
 H         4.227823         2.834083        -0.972391
 H         3.858642         2.030823        -2.446563
 H         2.202834         3.826491        -1.205859
 H         1.392356         2.184569        -1.625780
 H         2.546486         1.120861         1.614493
