19
Iteration:  4419
 C        -0.078317         0.032777        -0.297810
 C         1.404899         0.138180        -0.216582
 O         2.211236        -1.238520        -0.067804
 C         2.529136        -0.295897        -1.101180
 C         3.384469         0.908919        -0.426435
 C         3.456365         2.039831        -1.443151
 C         2.471984         3.071468        -1.008905
 O         2.019934         2.697337         0.393280
 C         2.379042         1.255972         0.493185
 H        -0.646124        -0.098142         0.592551
 H        -0.533135         0.913531        -0.881556
 H        -0.300334        -0.952959        -0.811165
 H         2.428283        -0.675347        -2.208463
 H         4.342539         0.384150        -0.121793
 H         4.408344         2.589742        -1.622236
 H         3.233525         1.638123        -2.493165
 H         2.993984         4.102047        -0.916569
 H         1.582289         3.337893        -1.749047
 H         2.461221         1.051181         1.654245
