19
Iteration:  1921charge 0 multiplicity 1
 C        -0.109925         0.193127        -0.107982
 C         1.458840         0.127370        -0.175458
 O         2.200013        -1.255102        -0.087186
 C         2.517058        -0.139656        -1.085272
 C         3.455217         0.815100        -0.400589
 C         3.715521         2.120850        -1.331336
 C         2.373092         2.919227        -1.112490
 O         1.886446         2.611467         0.126075
 C         2.273230         1.228480         0.483222
 H        -0.354154        -0.420151         0.758162
 H        -0.322975         1.235615        -0.195234
 H        -0.561003        -0.413107        -1.012010
 H         2.584591        -0.649630        -2.097165
 H         4.437326         0.531741         0.105844
 H         4.570317         2.674737        -0.947901
 H         3.913973         1.741518        -2.289458
 H         2.411291         3.989573        -1.283678
 H         1.656470         2.556346        -1.821160
 H         2.317718         1.320347         1.545565
