19
Iteration:  2989
 C        -0.071828         0.061777        -0.214567
 C         1.409154         0.041872        -0.066569
 O         2.175873        -1.105332         0.086634
 C         2.516408        -0.253507        -1.086753
 C         3.465469         0.925200        -0.570507
 C         3.558487         2.106625        -1.525008
 C         2.563005         3.107089        -0.929115
 O         1.820528         2.525888         0.141122
 C         2.302527         1.162041         0.443481
 H        -0.480214         0.007860         0.793152
 H        -0.348997         1.007897        -0.765739
 H        -0.375813        -0.705440        -0.864976
 H         2.278688        -0.690218        -2.048772
 H         4.392759         0.500740        -0.197686
 H         4.508303         2.554298        -1.252764
 H         3.694060         1.560491        -2.573450
 H         3.221673         3.801929        -0.452945
 H         1.857265         3.511510        -1.755373
 H         2.618122         1.350289         1.494793
