19
Iteration:  2426
 C        -0.060767         0.027961        -0.220042
 C         1.419703         0.170056        -0.147375
 O         2.168573        -1.094696         0.046990
 C         2.459834        -0.172147        -1.132174
 C         3.387271         0.807859        -0.589793
 C         3.737319         2.098325        -1.273933
 C         2.391324         2.904969        -1.198653
 O         1.969885         2.593378         0.308394
 C         2.296512         1.257062         0.443721
 H        -0.417782         0.132929         0.845954
 H        -0.472654         0.996729        -0.710986
 H        -0.381625        -0.841491        -0.831541
 H         2.343782        -0.766239        -2.076832
 H         4.271200         0.255722        -0.190871
 H         4.494775         2.738947        -0.675745
 H         4.190122         2.242492        -2.196909
 H         2.328451         3.986543        -1.436278
 H         1.683310         2.379086        -1.933238
 H         2.406266         1.213874         1.573112
