19
Iteration:  2183
 C         0.008033         0.211600        -0.123055
 C         1.439663         0.114749        -0.125352
 O         2.117775        -1.144523        -0.028189
 C         2.490003        -0.194314        -1.070337
 C         3.481655         0.885473        -0.524472
 C         3.685208         2.148848        -1.309033
 C         2.389207         2.921586        -1.106590
 O         1.847857         2.481488         0.113252
 C         2.293829         1.140309         0.449595
 H        -0.286414        -0.141662         0.849045
 H        -0.275356         1.218019        -0.302979
 H        -0.448390        -0.493401        -0.893749
 H         2.534983        -0.476881        -2.094904
 H         4.449816         0.495301        -0.062003
 H         4.569344         2.619205        -0.700537
 H         3.947831         2.022504        -2.361682
 H         2.580864         3.971951        -1.006008
 H         1.721638         2.807119        -1.950036
 H         2.531171         1.284692         1.498290
