19
Iteration:   701
 C        -0.054261         0.223200        -0.261359
 C         1.426215         0.184300         0.026798
 O         2.075593        -1.133459        -0.021449
 C         2.490109        -0.223214        -1.101941
 C         3.445951         0.863254        -0.540793
 C         3.702763         2.100517        -1.392553
 C         2.324616         2.922581        -1.076124
 O         1.954990         2.457778         0.222946
 C         2.446971         1.226047         0.507196
 H        -0.741597         0.367723         0.517678
 H        -0.285664         1.036584        -0.956439
 H        -0.341682        -0.690427        -0.739054
 H         2.140528        -0.667588        -2.057614
 H         4.477350         0.516237        -0.312407
 H         4.650113         2.571097        -1.106925
 H         3.761903         1.880624        -2.463430
 H         2.479686         4.062485        -1.151422
 H         1.618294         2.532278        -1.866553
 H         2.597931         1.083100         1.615298
