19
Iteration:  4352charge 0 multiplicity 1
 C        -0.022647         0.175011        -0.208416
 C         1.447362        -0.002328        -0.093679
 O         2.197606        -1.168742         0.090886
 C         2.469315        -0.283882        -1.153781
 C         3.429451         0.773252        -0.671043
 C         3.619777         2.248376        -1.385586
 C         2.487506         3.130663        -0.951268
 O         1.804809         2.512758         0.183792
 C         2.306292         1.151406         0.492075
 H        -0.654883        -0.123857         0.611808
 H        -0.070650         1.179587        -0.426597
 H        -0.318008        -0.355084        -1.165608
 H         2.384198        -0.811465        -2.084046
 H         4.482457         0.481902        -0.466866
 H         4.603498         2.599304        -1.136792
 H         3.616598         2.054786        -2.467900
 H         2.866067         4.122979        -0.707615
 H         1.772215         3.356849        -1.791449
 H         2.662378         1.115949         1.536493
