19
Iteration:  1248charge 0 multiplicity 1
 C        -0.066039         0.310263        -0.284627
 C         1.443598         0.121511        -0.093706
 O         2.234460        -1.143798        -0.029342
 C         2.513348        -0.163526        -1.048972
 C         3.486574         0.805671        -0.478257
 C         3.657357         2.157040        -1.405123
 C         2.285509         2.767620        -1.190618
 O         1.891876         2.542166         0.254617
 C         2.343807         1.164206         0.607328
 H        -0.527470        -0.008966         0.605072
 H        -0.092661         1.363333        -0.338542
 H        -0.389840        -0.246346        -1.136864
 H         2.296262        -0.408762        -2.083613
 H         4.392996         0.372615        -0.101661
 H         4.542319         2.724044        -1.115620
 H         3.674172         1.851697        -2.511048
 H         2.304356         3.872880        -1.311547
 H         1.542772         2.318890        -1.933049
 H         2.502617         1.272896         1.686341
