19
Iteration:   124
 C        -0.147857         0.290940        -0.131968
 C         1.385472         0.232965        -0.288296
 O         2.169241        -1.064575        -0.017348
 C         2.508023        -0.362449        -1.120436
 C         3.436441         0.791760        -0.538953
 C         3.687571         2.114686        -1.295918
 C         2.318773         2.798059        -1.057895
 O         2.014615         2.579667         0.291680
 C         2.387182         1.227043         0.409121
 H        -0.440673         0.340815         0.914493
 H        -0.476378         1.271256        -0.542898
 H        -0.572148        -0.592523        -0.611322
 H         2.650554        -0.767641        -2.208422
 H         4.415983         0.322132        -0.192365
 H         4.607375         2.673992        -0.951377
 H         3.755891         1.801347        -2.331548
 H         2.233572         3.902007        -1.259768
 H         1.653074         2.208435        -1.665508
 H         2.560399         0.931170         1.382961
