19
Iteration:  2734
 C        -0.043329         0.089376        -0.155437
 C         1.380029         0.000427        -0.157340
 O         2.196149        -1.113274         0.085231
 C         2.539954        -0.260403        -1.015577
 C         3.423072         0.870809        -0.573311
 C         3.572213         2.104970        -1.462399
 C         2.701021         3.129244        -0.908721
 O         1.664856         2.517760        -0.009602
 C         2.340256         1.242104         0.497174
 H        -0.439070        -0.658017         0.609906
 H        -0.449123         1.052478        -0.054981
 H        -0.384253        -0.303425        -1.176518
 H         2.571446        -0.839551        -1.963196
 H         4.329043         0.505706        -0.127012
 H         4.705858         2.435062        -1.544441
 H         3.252269         1.888957        -2.530176
 H         3.345229         3.942375        -0.352207
 H         2.095800         3.650532        -1.722209
 H         2.462167         1.177312         1.585242
