19
Iteration:  1564
 C        -0.104275        -0.072460        -0.157835
 C         1.413101         0.091750        -0.058636
 O         2.206660        -1.120209         0.101260
 C         2.376936        -0.275559        -1.071982
 C         3.399769         0.843486        -0.563700
 C         3.768007         2.080218        -1.327784
 C         2.575210         3.218981        -1.059458
 O         1.808193         2.591251         0.079515
 C         2.293759         1.240374         0.362710
 H        -0.413113        -0.452647         0.875574
 H        -0.483217         0.927372        -0.460383
 H        -0.257713        -0.641164        -1.123316
 H         2.127245        -0.636384        -2.076933
 H         4.177658         0.307216        -0.061104
 H         4.783718         2.352706        -1.203951
 H         3.817628         1.872928        -2.332535
 H         2.943271         4.200333        -0.753652
 H         2.050987         3.201226        -2.056573
 H         2.573362         1.256047         1.452655
