19
Iteration:  4234
 C         0.047419         0.231900        -0.167309
 C         1.504681         0.124043        -0.059974
 O         2.138929        -1.109756        -0.030623
 C         2.403932        -0.259434        -1.184043
 C         3.488629         0.847640        -0.598945
 C         3.693279         2.190434        -1.303679
 C         2.410009         2.930547        -1.056207
 O         1.791461         2.441520         0.189546
 C         2.346645         1.159506         0.552916
 H        -0.495563        -0.112866         0.686005
 H        -0.219300         1.309790        -0.596409
 H        -0.107498        -0.558504        -1.030103
 H         2.224724        -0.455119        -2.204861
 H         4.411481         0.293715        -0.407190
 H         4.456528         2.960670        -1.054427
 H         3.793064         1.993216        -2.452696
 H         2.476713         4.028066        -0.894307
 H         1.592655         2.807943        -1.859418
 H         2.477115         1.165583         1.711732
