19
Iteration:  2687
 C        -0.072312         0.058254        -0.187206
 C         1.420607         0.075475        -0.085437
 O         2.182041        -1.193363         0.089552
 C         2.539490        -0.180521        -1.073566
 C         3.461603         0.914145        -0.464579
 C         3.528480         2.070863        -1.496480
 C         2.640760         3.121688        -0.907353
 O         1.743333         2.481965        -0.011628
 C         2.292985         1.271307         0.406294
 H        -0.453258        -0.255407         0.752794
 H        -0.482551         1.117120        -0.335247
 H        -0.459029        -0.505522        -0.974943
 H         2.672455        -0.495828        -2.076900
 H         4.424419         0.662757         0.127753
 H         4.688398         2.234382        -1.611010
 H         3.362426         1.445502        -2.484437
 H         3.272241         3.848734        -0.225257
 H         2.064690         3.713391        -1.563982
 H         2.588534         1.082534         1.469046
