19
Iteration:   839
 C        -0.090208         0.116243        -0.218173
 C         1.490982         0.125892        -0.107830
 O         2.084642        -1.225974        -0.065841
 C         2.527971        -0.139056        -1.051234
 C         3.477875         0.845242        -0.453137
 C         3.617161         2.038183        -1.386328
 C         2.422090         2.955706        -1.170839
 O         1.931390         2.617107         0.177452
 C         2.371019         1.260758         0.606922
 H        -0.364322        -0.116238         0.926138
 H        -0.498025         1.139617        -0.453612
 H        -0.678516        -0.572105        -0.943860
 H         2.342233        -0.425652        -2.150209
 H         4.405556         0.313244        -0.125743
 H         4.691797         2.453040        -1.244410
 H         3.645889         1.777429        -2.466706
 H         2.602326         4.055522        -1.169883
 H         1.546854         2.854227        -1.857162
 H         2.482618         1.269226         1.698358
