19
Iteration:  1380
 C        -0.043730         0.095072        -0.118474
 C         1.389588         0.176480        -0.252602
 O         2.134299        -1.061129         0.064620
 C         2.582673        -0.227694        -1.106462
 C         3.505306         0.801212        -0.461197
 C         3.636045         2.060435        -1.433991
 C         2.439813         2.979793        -1.073499
 O         1.879778         2.549422         0.164812
 C         2.230586         1.194761         0.441222
 H        -0.236927        -0.299344         0.858639
 H        -0.587340         0.994671        -0.220676
 H        -0.607402        -0.507887        -0.827680
 H         2.771413        -0.740205        -2.024249
 H         4.435264         0.611654         0.054790
 H         4.544926         2.587600        -1.070025
 H         3.790987         1.868456        -2.592219
 H         2.992626         3.925387        -0.901158
 H         1.710192         3.054818        -1.817444
 H         2.306590         1.175477         1.556522
