19
Iteration:  1258charge 0 multiplicity 1
 C        -0.027171         0.258022        -0.194721
 C         1.481146         0.142268        -0.151651
 O         2.181020        -1.181492        -0.089780
 C         2.545322        -0.235217        -1.084682
 C         3.552438         0.841389        -0.463456
 C         3.671500         2.065891        -1.352954
 C         2.272871         2.809218        -1.125940
 O         1.915941         2.553689         0.208379
 C         2.264750         1.342441         0.580078
 H        -0.515563         0.084178         0.735160
 H        -0.329790         1.301951        -0.358847
 H        -0.642901        -0.264009        -0.900914
 H         2.276662        -0.494664        -2.141938
 H         4.462909         0.464159        -0.047078
 H         4.550732         2.691124        -1.093247
 H         3.853739         1.952021        -2.508393
 H         1.998349         3.834778        -1.330542
 H         1.603620         2.205292        -1.745281
 H         2.301750         1.023283         1.644510
