19
Iteration:  4640charge 0 multiplicity 1
 C        -0.115273        -0.050220        -0.197189
 C         1.352520         0.070539        -0.120107
 O         2.182210        -1.211325        -0.042999
 C         2.498265        -0.198916        -1.077766
 C         3.478807         0.859295        -0.495363
 C         3.539164         2.097022        -1.526880
 C         2.565648         3.151100        -1.012498
 O         1.972026         2.665248         0.246099
 C         2.285594         1.197559         0.520547
 H        -0.645168        -0.023288         0.703838
 H        -0.529034         0.854124        -0.753449
 H        -0.331853        -0.953834        -0.803604
 H         2.352460        -0.607471        -2.098412
 H         4.400003         0.532133        -0.006217
 H         4.529652         2.380822        -1.433253
 H         3.183168         1.800777        -2.493773
 H         3.168430         3.971936        -0.629217
 H         1.830173         3.386954        -1.784381
 H         2.552981         1.322118         1.592010
