19
Iteration:   253charge 0 multiplicity 1
 C        -0.007093         0.146194        -0.101542
 C         1.421301         0.196059        -0.255235
 O         1.970508        -1.111215         0.016380
 C         2.500966        -0.325138        -1.157576
 C         3.408258         0.815220        -0.524343
 C         3.635756         2.189147        -1.357409
 C         2.364298         2.951146        -1.119672
 O         2.110873         2.551134         0.244345
 C         2.360235         1.204468         0.458273
 H        -0.171785        -0.171352         0.939023
 H        -0.385423         1.160257        -0.323293
 H        -0.392440        -0.552551        -0.849861
 H         2.493780        -1.072111        -2.080715
 H         4.275757         0.440787        -0.080761
 H         4.474729         2.741678        -0.816293
 H         3.928261         1.935092        -2.343491
 H         2.597335         4.064808        -1.007738
 H         1.515292         2.769357        -1.820413
 H         2.390454         0.966232         1.528900
