19
Iteration:   543
 C        -0.092975         0.283506        -0.076927
 C         1.459757         0.182164        -0.260347
 O         2.078603        -1.164658        -0.030894
 C         2.528594        -0.349722        -1.177059
 C         3.521602         0.777460        -0.474824
 C         3.651041         2.113890        -1.347125
 C         2.366188         2.891894        -1.102525
 O         1.961796         2.620261         0.273794
 C         2.345907         1.224005         0.428719
 H        -0.330072        -0.171657         0.895492
 H        -0.395441         1.318397         0.035970
 H        -0.520449        -0.217180        -0.935604
 H         2.495873        -0.775940        -2.205663
 H         4.546154         0.443022        -0.090226
 H         4.518340         2.618507        -0.906852
 H         3.713495         1.915814        -2.454715
 H         2.267583         3.945037        -1.329743
 H         1.462128         2.490885        -1.657683
 H         2.470245         1.108651         1.512312
