19
Iteration:  1594charge 0 multiplicity 1
 C        -0.163451        -0.123593         0.021210
 C         1.288137         0.171694        -0.199301
 O         2.155611        -1.025454         0.011594
 C         2.575020        -0.219753        -1.094069
 C         3.420854         0.846314        -0.500423
 C         3.780469         2.037316        -1.341190
 C         2.611666         3.180815        -1.089334
 O         1.821512         2.540929         0.036272
 C         2.231040         1.226384         0.433967
 H        -0.234575        -0.727644         0.994406
 H        -0.563984         0.907244        -0.124654
 H        -0.495401        -0.827685        -0.873428
 H         2.694794        -0.583500        -2.050489
 H         4.321971         0.327819        -0.076817
 H         4.847964         2.238802        -0.997320
 H         3.798713         1.835440        -2.573622
 H         2.960278         4.148213        -0.757020
 H         1.990657         3.286401        -1.974243
 H         2.345335         1.167930         1.521169
