19
Iteration:  1714
 C        -0.072252         0.259508        -0.282983
 C         1.457750         0.175435        -0.226447
 O         2.066892        -1.134422        -0.009253
 C         2.650632        -0.198392        -1.091101
 C         3.540405         0.895175        -0.338657
 C         3.577937         2.059351        -1.441576
 C         2.241664         2.732135        -1.149881
 O         2.028410         2.600682         0.323946
 C         2.331166         1.235827         0.551422
 H        -0.414493        -0.021089         0.639865
 H        -0.412558         1.106930        -0.795042
 H        -0.424910        -0.610913        -0.876774
 H         2.672222        -0.620845        -2.079315
 H         4.556395         0.585120         0.017084
 H         4.212331         2.940774        -1.358373
 H         3.457263         1.579906        -2.495065
 H         2.426427         3.759212        -1.440101
 H         1.450823         2.384445        -1.842907
 H         2.462187         0.975702         1.586528
