19
Iteration:  3585charge 0 multiplicity 1
 C        -0.016506         0.033604        -0.325397
 C         1.449334         0.136007        -0.020959
 O         2.248576        -1.093664         0.190846
 C         2.502027        -0.315639        -1.040767
 C         3.353650         0.902871        -0.614143
 C         3.367183         2.061723        -1.607674
 C         2.776086         3.114749        -0.734322
 O         1.723679         2.488013         0.013965
 C         2.352306         1.294219         0.397810
 H        -0.650331        -0.201440         0.626131
 H        -0.518239         0.997505        -0.602446
 H        -0.161968        -0.792278        -0.944583
 H         2.515545        -0.951487        -1.958960
 H         4.387050         0.617851        -0.209203
 H         4.388030         1.979806        -2.053382
 H         2.732171         2.004094        -2.427288
 H         3.497016         3.399303         0.092284
 H         2.439236         3.994319        -1.288476
 H         2.633738         1.356862         1.463630
