19
Iteration:  2371charge 0 multiplicity 1
 C        -0.058369         0.187351        -0.245329
 C         1.486276         0.136516        -0.143548
 O         2.120140        -1.133725        -0.079265
 C         2.563534        -0.171221        -1.102537
 C         3.517880         0.907205        -0.389845
 C         3.636701         2.004167        -1.402741
 C         2.331236         2.852907        -1.083633
 O         1.908150         2.601164         0.206880
 C         2.350652         1.199134         0.567871
 H        -0.527972        -0.202408         0.689188
 H        -0.340715         1.255672        -0.401028
 H        -0.479455        -0.434595        -1.022449
 H         2.395302        -0.640898        -2.125685
 H         4.439253         0.463576         0.012053
 H         4.408525         2.739383        -1.100273
 H         3.570949         1.707561        -2.365226
 H         2.464353         3.885365        -1.341592
 H         1.607115         2.427591        -1.813503
 H         2.313164         1.371434         1.655520
