19
Iteration:   269charge 0 multiplicity 1
 C        -0.098059         0.224305        -0.190598
 C         1.437668         0.174041        -0.076709
 O         2.058958        -1.150590        -0.064810
 C         2.463615        -0.254771        -1.073722
 C         3.509235         0.792613        -0.573971
 C         3.647470         2.065667        -1.401035
 C         2.363945         2.937679        -1.069121
 O         1.964640         2.558053         0.258336
 C         2.428849         1.218550         0.491392
 H        -0.574986         0.063801         0.788936
 H        -0.487173         1.159398        -0.616259
 H        -0.404887        -0.648132        -0.787136
 H         2.369191        -0.505471        -2.067697
 H         4.559929         0.431984        -0.172409
 H         4.518269         2.567567        -0.966524
 H         3.999276         1.961247        -2.499954
 H         2.553594         3.991275        -1.146329
 H         1.526264         2.817346        -1.804392
 H         2.761452         1.184923         1.532670
