19
Iteration:   266charge 0 multiplicity 1
 C        -0.071091         0.212239        -0.176710
 C         1.436551         0.186138        -0.098901
 O         2.039518        -1.144316        -0.059407
 C         2.449174        -0.287457        -1.076084
 C         3.499049         0.838222        -0.570125
 C         3.660407         2.030573        -1.396792
 C         2.359080         2.953868        -1.075516
 O         1.989208         2.552346         0.245466
 C         2.418884         1.210305         0.495267
 H        -0.552483         0.049324         0.784280
 H        -0.531420         1.143782        -0.550489
 H        -0.396999        -0.640375        -0.793185
 H         2.486174        -0.595455        -2.170588
 H         4.493388         0.562585        -0.162222
 H         4.438709         2.636651        -0.866618
 H         4.006363         2.019996        -2.449298
 H         2.540387         4.066127        -1.062583
 H         1.469499         2.809516        -1.769250
 H         2.793889         1.131931         1.480119
