19
Iteration:  4062
 C         0.030379         0.356729        -0.160196
 C         1.516663         0.191439        -0.178138
 O         2.143592        -1.192881        -0.141301
 C         2.609032        -0.248800        -1.143426
 C         3.579946         0.814868        -0.444215
 C         3.525632         2.054111        -1.301950
 C         2.173549         2.836593        -1.117895
 O         1.886179         2.564004         0.254264
 C         2.376968         1.197379         0.538548
 H        -0.422957         0.447540         0.808610
 H        -0.252127         1.301427        -0.795870
 H        -0.455788        -0.484631        -0.621102
 H         2.621644        -0.522070        -2.141497
 H         4.524703         0.492570         0.024841
 H         4.395832         2.610578        -1.084550
 H         3.713257         1.736748        -2.306845
 H         2.138282         3.912687        -1.386405
 H         1.230346         2.450874        -1.592079
 H         2.521393         1.127942         1.603947
