19
Iteration:  3258
 C        -0.058165        -0.118878        -0.251885
 C         1.394710         0.123963        -0.164254
 O         2.145665        -1.060948         0.061467
 C         2.495410        -0.307211        -1.088426
 C         3.399319         0.848955        -0.576974
 C         3.625592         2.006194        -1.478331
 C         2.417255         3.064809        -0.987073
 O         2.041713         2.672947         0.314807
 C         2.275146         1.336804         0.433231
 H        -0.562199        -0.223585         0.755691
 H        -0.440479         0.852854        -0.652528
 H        -0.157577        -1.042337        -0.819781
 H         2.695431        -0.740745        -2.063330
 H         4.358327         0.436800        -0.034163
 H         4.633548         2.452923        -1.478250
 H         3.423374         1.894388        -2.502996
 H         2.880256         4.096412        -1.014695
 H         1.618257         3.161564        -1.763659
 H         2.196647         1.313283         1.554729
