19
Iteration:  4573
 C        -0.148548         0.057433        -0.075910
 C         1.350924         0.135396        -0.149864
 O         2.193679        -1.097034        -0.051330
 C         2.449090        -0.200664        -1.182085
 C         3.409319         0.824665        -0.627752
 C         3.798293         2.193952        -1.252792
 C         2.367562         2.893972        -1.166691
 O         1.947376         2.614768         0.247834
 C         2.379252         1.184946         0.478870
 H        -0.350866        -0.337142         0.846802
 H        -0.570617         1.159605        -0.037690
 H        -0.489687        -0.538270        -0.877162
 H         2.472873        -0.521504        -2.182697
 H         4.266163         0.343923        -0.111377
 H         4.279353         2.766387        -0.545860
 H         4.253069         2.150708        -2.222853
 H         2.369000         3.947452        -1.262312
 H         1.729926         2.376297        -1.811410
 H         2.746950         0.740972         1.400778
