19
Iteration:  1904charge 0 multiplicity 1
 C        -0.079977         0.202797        -0.100166
 C         1.396095         0.080892        -0.166050
 O         2.167393        -1.112135        -0.063500
 C         2.562523        -0.270076        -1.083246
 C         3.461705         0.893681        -0.500481
 C         3.755785         2.174634        -1.245594
 C         2.421182         2.870876        -1.239203
 O         1.857077         2.490414         0.159638
 C         2.267854         1.194966         0.491135
 H        -0.430552        -0.141082         0.895275
 H        -0.250748         1.319457        -0.074375
 H        -0.702491        -0.289877        -0.833721
 H         2.516068        -0.509124        -2.128524
 H         4.361986         0.496665        -0.107018
 H         4.443091         2.873278        -0.660247
 H         4.025097         2.149512        -2.387296
 H         2.445830         3.954196        -1.045547
 H         1.589239         2.674920        -2.056340
 H         2.422962         1.082128         1.606877
