19
Iteration:  4040
 C         0.027423         0.317517        -0.153846
 C         1.460586         0.075943        -0.116723
 O         2.132233        -1.120292        -0.151263
 C         2.538757        -0.130490        -1.110751
 C         3.517798         0.908968        -0.478547
 C         3.651127         2.164163        -1.353015
 C         2.228584         2.678499        -1.238668
 O         1.932132         2.483949         0.258206
 C         2.326873         1.188515         0.643503
 H        -0.348715         0.145882         0.855514
 H        -0.168530         1.424968        -0.476137
 H        -0.637820        -0.321911        -0.746196
 H         2.457320        -0.294998        -2.129522
 H         4.420809         0.423788        -0.083628
 H         4.391843         2.770238        -0.903683
 H         3.997363         1.983274        -2.349647
 H         2.041344         3.767143        -1.319719
 H         1.429805         2.194949        -1.918792
 H         2.609171         1.089369         1.685668
