19
Iteration:  1699
 C        -0.038692         0.213340        -0.271334
 C         1.428367         0.188131        -0.218647
 O         2.139629        -1.105984        -0.051911
 C         2.638541        -0.251015        -1.014818
 C         3.492437         0.809998        -0.487092
 C         3.575609         2.064113        -1.358252
 C         2.222414         2.786319        -1.157380
 O         2.046871         2.622372         0.248926
 C         2.295348         1.235100         0.550130
 H        -0.433580         0.373716         0.819466
 H        -0.384898         1.312602        -0.577484
 H        -0.492792        -0.604359        -0.814178
 H         2.712530        -0.654064        -2.033469
 H         4.445830         0.484680        -0.011656
 H         4.401010         2.587477        -0.807572
 H         3.925760         1.861632        -2.296832
 H         2.060766         3.901094        -1.345375
 H         1.380845         2.197988        -1.630979
 H         2.272417         1.169916         1.661810
