19
Iteration:   583
 C        -0.130934         0.206760        -0.237934
 C         1.417715         0.113125        -0.119898
 O         2.171266        -1.080968         0.037305
 C         2.409761        -0.259839        -1.070594
 C         3.498425         0.775738        -0.572009
 C         3.653113         2.106473        -1.418367
 C         2.368463         2.932705        -1.063756
 O         2.013368         2.570918         0.285269
 C         2.419630         1.212421         0.455679
 H        -0.710304        -0.441481         0.493983
 H        -0.580474         1.303872        -0.198801
 H        -0.624040        -0.066423        -1.230402
 H         2.421614        -0.662171        -2.057596
 H         4.319138         0.320935        -0.007833
 H         4.556498         2.705525        -1.243801
 H         3.651880         1.772926        -2.508137
 H         2.399290         4.049600        -1.111001
 H         1.699491         2.533034        -1.879766
 H         2.520467         1.041250         1.542043
