19
Iteration:  4694charge 0 multiplicity 1
 C        -0.035387         0.238073        -0.344050
 C         1.452617         0.085649        -0.206033
 O         2.189041        -1.163125         0.163179
 C         2.569425        -0.401754        -0.970239
 C         3.428414         0.884194        -0.663913
 C         3.419717         2.110710        -1.619916
 C         2.536634         3.156395        -0.785145
 O         1.853335         2.430105         0.204858
 C         2.338812         1.207365         0.482066
 H        -0.375865         0.163587         0.657507
 H        -0.230096         1.337009        -0.782213
 H        -0.396033        -0.610432        -0.989490
 H         2.643168        -1.022348        -1.913656
 H         4.398500         0.673891        -0.186018
 H         4.389587         2.396598        -1.919180
 H         2.817109         1.971524        -2.502433
 H         3.175858         3.923945        -0.300775
 H         1.827195         3.771140        -1.498446
 H         2.779773         1.188667         1.469240
