19
Iteration:   439charge 0 multiplicity 1
 C        -0.100868         0.243568        -0.091839
 C         1.437884         0.153659        -0.267508
 O         2.174124        -1.078220         0.011501
 C         2.516086        -0.278724        -1.149606
 C         3.324801         0.830836        -0.583193
 C         3.690006         2.045185        -1.394080
 C         2.465178         2.919483        -1.053636
 O         1.971983         2.560591         0.289952
 C         2.288209         1.205409         0.435292
 H        -0.336938        -0.145848         0.916214
 H        -0.626521         1.198745        -0.433326
 H        -0.513394        -0.553631        -0.778838
 H         2.568940        -0.790687        -2.163465
 H         4.100105         0.569371         0.048946
 H         4.708807         2.420087        -1.140835
 H         3.746923         1.779403        -2.404498
 H         2.703601         3.971471        -0.859438
 H         1.528288         2.822892        -1.630791
 H         2.562590         1.023862         1.505748
