19
Iteration:  3289charge 0 multiplicity 1
 C        -0.163113        -0.165655        -0.336709
 C         1.372717         0.107984        -0.069297
 O         2.157587        -1.015445         0.056440
 C         2.445184        -0.258424        -1.033326
 C         3.391885         0.899325        -0.599088
 C         3.621769         2.058955        -1.484234
 C         2.454928         3.046686        -1.083691
 O         2.086648         2.626362         0.299455
 C         2.369029         1.313005         0.532963
 H        -0.612254        -0.512743         0.600024
 H        -0.583213         0.736447        -0.671909
 H        -0.231445        -0.974835        -1.113909
 H         2.551887        -0.707072        -2.034528
 H         4.356029         0.437033        -0.125103
 H         4.616655         2.597907        -1.219086
 H         3.442269         1.857268        -2.546894
 H         2.895510         4.046628        -0.935165
 H         1.652039         2.961145        -1.767393
 H         2.333245         1.214037         1.637866
