19
Iteration:   220charge 0 multiplicity 1
 C        -0.243312         0.105167        -0.120945
 C         1.365191         0.204611        -0.216621
 O         2.241505        -1.009726        -0.022895
 C         2.457666        -0.219818        -1.144665
 C         3.394111         0.812701        -0.576980
 C         3.738717         2.050101        -1.431371
 C         2.447166         2.821380        -1.067799
 O         2.022087         2.591359         0.324068
 C         2.327497         1.256289         0.492176
 H        -0.733091        -0.355713         0.762054
 H        -0.629886         1.161444        -0.134376
 H        -0.651261        -0.398769        -1.012373
 H         2.531672        -0.939913        -2.117817
 H         4.200510         0.353605        -0.110738
 H         4.692208         2.526136        -1.030445
 H         3.933870         1.741586        -2.423806
 H         2.686232         3.942990        -1.123165
 H         1.622957         2.633680        -1.794348
 H         2.524148         1.115357         1.592011
