19
Iteration:  1449
 C         0.021575         0.199998        -0.456845
 C         1.441959         0.253253        -0.083424
 O         2.115728        -1.045974         0.130496
 C         2.438641        -0.194251        -1.113322
 C         3.533293         0.752956        -0.502385
 C         3.564153         2.092757        -1.425452
 C         2.199146         2.763089        -1.125820
 O         1.980209         2.571994         0.324289
 C         2.515234         1.239248         0.546071
 H        -0.572834        -0.069308         0.415562
 H        -0.339183         1.082015        -0.991837
 H         0.006519        -0.563304        -1.198151
 H         2.315076        -0.873334        -2.030626
 H         4.424733         0.118602        -0.165917
 H         4.292324         2.866149        -1.018600
 H         3.912412         1.978454        -2.518473
 H         2.167215         3.851650        -1.159257
 H         1.396117         2.296478        -1.623039
 H         2.531720         1.062747         1.590677
