19
Iteration:  1124charge 0 multiplicity 1
 C        -0.146890         0.093162        -0.285294
 C         1.403788         0.131959        -0.062494
 O         2.166097        -1.237075         0.067669
 C         2.429188        -0.242307        -1.075442
 C         3.423977         0.838229        -0.563101
 C         3.646902         2.198423        -1.331364
 C         2.420080         3.019308        -1.161434
 O         2.017251         2.519849         0.199381
 C         2.385611         1.294868         0.508611
 H        -0.650984         0.139186         0.651074
 H        -0.344986         0.787111        -1.063865
 H        -0.262229        -0.831660        -0.751808
 H         2.383158        -0.444593        -2.094844
 H         4.371778         0.389517        -0.236205
 H         4.453686         2.862973        -0.820843
 H         3.956583         2.013858        -2.359663
 H         2.591624         4.051515        -1.024577
 H         1.415330         2.920914        -1.840790
 H         2.636054         1.022399         1.549968
