19
Iteration:  3221charge 0 multiplicity 1
 C        -0.068374         0.188355        -0.210799
 C         1.406353         0.105726        -0.161706
 O         2.206418        -1.080728         0.049799
 C         2.550304        -0.288392        -1.059930
 C         3.511163         0.809676        -0.527330
 C         3.638759         2.115069        -1.430833
 C         2.310811         2.984565        -1.024183
 O         1.917462         2.521399         0.193951
 C         2.304969         1.240604         0.436031
 H        -0.454663         0.205961         0.771513
 H        -0.454962         1.017308        -0.770179
 H        -0.524649        -0.709168        -0.703302
 H         2.562631        -0.886496        -2.007798
 H         4.510264         0.511754        -0.251261
 H         4.582044         2.640812        -1.067895
 H         3.674604         1.760794        -2.528246
 H         2.535774         4.024570        -0.848048
 H         1.428283         2.878597        -1.603128
 H         2.546367         1.082258         1.484712
