19
Iteration:  4032charge 0 multiplicity 1
 C        -0.081699         0.268441        -0.138229
 C         1.449879         0.158071        -0.060446
 O         2.166481        -1.101805        -0.152334
 C         2.528588        -0.151225        -1.135975
 C         3.547183         0.859999        -0.503427
 C         3.727876         2.178801        -1.329710
 C         2.221004         2.740575        -1.223149
 O         1.897261         2.471806         0.245424
 C         2.368369         1.151407         0.603551
 H        -0.644441         0.166161         0.927972
 H        -0.205271         1.383949        -0.281418
 H        -0.447024        -0.314761        -0.950202
 H         2.299917        -0.438702        -2.148830
 H         4.502145         0.472352        -0.105041
 H         4.495160         2.926905        -0.913204
 H         4.098121         1.863177        -2.343064
 H         1.933921         3.802692        -1.562444
 H         1.481660         2.026849        -1.697276
 H         2.568509         1.158163         1.661065
