19
Iteration:   387charge 0 multiplicity 1
 C         0.012319         0.130102        -0.271178
 C         1.408925         0.115522        -0.043290
 O         2.143164        -1.142659        -0.022066
 C         2.370217        -0.163490        -1.068755
 C         3.426116         0.829302        -0.595415
 C         3.622290         2.035815        -1.482007
 C         2.503240         2.910954        -1.088197
 O         1.954165         2.609637         0.330691
 C         2.369887         1.243956         0.539871
 H        -0.701416        -0.250919         0.446798
 H        -0.293497         1.195938        -0.298544
 H        -0.343710        -0.286196        -1.214490
 H         2.061581        -0.518408        -1.987399
 H         4.310790         0.483774        -0.075525
 H         4.635846         2.416421        -1.329154
 H         3.655035         1.789938        -2.563889
 H         2.635427         3.985237        -1.050409
 H         1.623306         2.859120        -1.691122
 H         2.540638         1.070698         1.570475
