19
Iteration:   911charge 0 multiplicity 1
 C        -0.044470         0.161127        -0.393949
 C         1.461165         0.145293        -0.068387
 O         2.100314        -1.133624         0.060159
 C         2.442546        -0.259676        -1.072892
 C         3.421358         0.803288        -0.541441
 C         3.590137         2.115145        -1.374093
 C         2.317934         2.898476        -1.063726
 O         2.038000         2.622785         0.289108
 C         2.465383         1.251636         0.515079
 H        -0.550699         0.400508         0.477732
 H        -0.326398         0.786272        -1.238901
 H        -0.401434        -0.822795        -0.641675
 H         2.277202        -0.687649        -2.097833
 H         4.385900         0.307171        -0.329429
 H         4.467961         2.630627        -1.119991
 H         3.760955         1.906390        -2.439263
 H         2.229658         3.969491        -1.257418
 H         1.463616         2.625198        -1.825381
 H         2.868999         1.121839         1.519799
