19
Iteration:  4384
 C        -0.046032         0.151653        -0.209589
 C         1.444279         0.133264        -0.254449
 O         2.142317        -1.080727         0.025775
 C         2.562408        -0.239045        -1.125376
 C         3.501892         0.879138        -0.492077
 C         3.540238         2.111536        -1.486317
 C         2.480152         3.036979        -0.938669
 O         1.842161         2.472408         0.258716
 C         2.331593         1.145367         0.493219
 H        -0.438636        -0.059864         0.844846
 H        -0.423382         1.045251        -0.578737
 H        -0.322033        -0.655426        -0.977476
 H         2.577290        -0.687394        -2.105523
 H         4.499954         0.436774        -0.143497
 H         4.496814         2.547414        -1.623449
 H         3.158858         1.715844        -2.427958
 H         2.967368         3.973046        -0.548254
 H         1.658938         3.345315        -1.731720
 H         2.530227         0.888913         1.532641
