19
Iteration:  2860charge 0 multiplicity 1
 C        -0.087469        -0.054362        -0.284108
 C         1.402018         0.130111        -0.056490
 O         2.233515        -1.037946         0.178016
 C         2.542975        -0.360995        -1.021916
 C         3.356865         0.837292        -0.659208
 C         3.458570         2.068327        -1.619200
 C         2.769741         3.197303        -0.658922
 O         1.783077         2.553434        -0.026466
 C         2.283661         1.219519         0.413612
 H        -0.736901         0.066692         0.621303
 H        -0.450980         0.826849        -1.040656
 H        -0.331004        -1.067977        -0.588434
 H         2.697352        -0.981546        -1.857351
 H         4.429623         0.469500        -0.465935
 H         4.486375         2.199033        -1.897821
 H         2.759535         2.192890        -2.407934
 H         3.607735         3.565205         0.078117
 H         2.242629         4.135120        -1.106797
 H         2.541924         1.343987         1.502964
