19
Iteration:   106
 C        -0.102839         0.168951        -0.225700
 C         1.435895         0.136852        -0.085171
 O         1.940677        -1.172355        -0.013036
 C         2.496036        -0.185355        -1.083656
 C         3.566750         0.818902        -0.573248
 C         3.649739         2.164474        -1.409355
 C         2.344973         2.896994        -1.176039
 O         2.090053         2.559341         0.275500
 C         2.381839         1.178340         0.544453
 H        -0.407787         0.186134         0.853588
 H        -0.409866         1.114965        -0.706980
 H        -0.476307        -0.721609        -0.768100
 H         2.360317        -0.640080        -1.995262
 H         4.616858         0.518355        -0.233787
 H         4.320971         2.773762        -0.831588
 H         4.071052         2.154064        -2.473926
 H         2.404429         3.967227        -1.187702
 H         1.444314         2.608800        -1.810418
 H         2.549358         1.136230         1.690593
