19
Iteration:   866charge 0 multiplicity 1
 C        -0.081435         0.162991        -0.178029
 C         1.418821         0.244719        -0.261392
 O         2.122665        -1.011626         0.044794
 C         2.555364        -0.250840        -1.131490
 C         3.497660         0.839128        -0.520924
 C         3.645680         2.056510        -1.337722
 C         2.352394         2.856331        -1.086519
 O         1.951505         2.516399         0.264231
 C         2.373285         1.209143         0.434569
 H        -0.429294         0.311173         0.765048
 H        -0.457715         1.029625        -0.730894
 H        -0.581384        -0.690064        -0.567251
 H         2.562078        -0.913130        -1.920162
 H         4.306211         0.338163        -0.031774
 H         4.556381         2.472705        -1.104606
 H         3.668690         1.870891        -2.404008
 H         2.308518         3.948404        -1.151022
 H         1.464466         2.660193        -1.699546
 H         2.512451         0.929198         1.508914
