19
Iteration:  4396
 C        -0.029541         0.081626        -0.267197
 C         1.431702         0.079339        -0.145035
 O         2.129641        -1.126064        -0.071142
 C         2.621784        -0.183734        -1.075586
 C         3.485674         0.876113        -0.527901
 C         3.497574         2.019537        -1.505022
 C         2.512832         3.108747        -0.916354
 O         1.928704         2.528477         0.292320
 C         2.246807         1.201186         0.514288
 H        -0.438846        -0.003148         0.790236
 H        -0.320342         1.065591        -0.561773
 H        -0.641370        -0.765669        -0.757419
 H         2.716634        -0.690729        -2.065668
 H         4.553669         0.552871        -0.190052
 H         4.475421         2.420892        -1.692936
 H         3.160858         1.727663        -2.531319
 H         2.834355         4.192319        -0.757606
 H         1.620264         3.156492        -1.707669
 H         2.140625         1.153145         1.642281
