19
Iteration:  2388charge 0 multiplicity 1
 C        -0.069238         0.101185        -0.222373
 C         1.382992         0.179005        -0.183916
 O         2.085814        -1.107345        -0.076005
 C         2.568189        -0.117328        -1.044065
 C         3.502305         0.858276        -0.439051
 C         3.674714         2.129688        -1.370352
 C         2.323733         2.766437        -1.236524
 O         1.996575         2.564328         0.290209
 C         2.313521         1.293015         0.572595
 H        -0.429551        -0.197671         0.772409
 H        -0.538712         1.025961        -0.478611
 H        -0.531268        -0.746445        -0.901195
 H         2.692588        -0.351774        -2.083388
 H         4.393804         0.405218         0.036367
 H         4.590940         2.630408        -1.076412
 H         3.974130         1.656759        -2.449567
 H         2.337574         3.877672        -1.153055
 H         1.507913         2.403457        -1.920951
 H         2.563634         0.912346         1.543638
