19
Iteration:  4151
 C        -0.080925        -0.155052        -0.400446
 C         1.310954         0.125297        -0.201225
 O         2.121562        -0.996707         0.063656
 C         2.485324        -0.333185        -1.069581
 C         3.477852         0.888744        -0.474142
 C         3.453376         2.093768        -1.545400
 C         2.477947         3.156722        -0.948970
 O         2.166645         2.573158         0.332674
 C         2.322178         1.218781         0.548464
 H        -0.614979        -0.359855         0.594706
 H        -0.588458         0.755424        -0.802002
 H        -0.168005        -0.944923        -1.070863
 H         2.473186        -0.822984        -2.099264
 H         4.446209         0.599708         0.009902
 H         4.378747         2.680179        -1.644291
 H         3.282258         1.790942        -2.555218
 H         2.822051         4.263104        -0.852640
 H         1.748599         3.367064        -1.750393
 H         2.487595         0.955300         1.565630
