19
Iteration:  2040
 C         0.029584         0.244351        -0.323227
 C         1.509392         0.162883        -0.138857
 O         2.102485        -1.143995         0.012205
 C         2.573423        -0.210341        -1.001853
 C         3.547172         0.865536        -0.434851
 C         3.459429         2.013643        -1.450042
 C         2.389724         2.947852        -1.118901
 O         1.837952         2.511313         0.253882
 C         2.351272         1.197264         0.568503
 H        -0.507634         0.389263         0.559947
 H        -0.135195         0.875278        -1.124673
 H        -0.400720        -0.695817        -0.669621
 H         2.716655        -0.337980        -2.116286
 H         4.578768         0.449322        -0.151883
 H         4.422422         2.718630        -1.545132
 H         3.299533         1.719093        -2.496364
 H         2.805997         3.954593        -0.957116
 H         1.544583         3.016871        -1.877437
 H         2.538300         0.819987         1.552800
