19
Iteration:  3733charge 0 multiplicity 1
 C        -0.071348         0.160623        -0.088974
 C         1.396740         0.081466        -0.163726
 O         2.216586        -1.131681         0.141742
 C         2.520172        -0.255099        -1.119900
 C         3.451399         0.855778        -0.576786
 C         3.573567         2.103408        -1.488385
 C         2.673470         3.155423        -0.820124
 O         1.694362         2.414718        -0.042975
 C         2.334168         1.175743         0.413159
 H        -0.359468         0.117723         0.901673
 H        -0.316222         1.120696        -0.537628
 H        -0.588418        -0.685205        -0.631850
 H         2.726097        -0.835944        -2.018018
 H         4.450641         0.645733        -0.224788
 H         4.483731         2.530956        -1.861696
 H         2.870595         1.886374        -2.374533
 H         3.261804         3.735327        -0.064483
 H         2.117922         3.874017        -1.476491
 H         2.467590         1.188231         1.468661
