19
Iteration:  3052
 C        -0.094655        -0.018638        -0.160275
 C         1.399041         0.108024        -0.114862
 O         2.192295        -1.137575         0.027861
 C         2.487296        -0.249397        -1.066694
 C         3.430482         0.882931        -0.513085
 C         3.686553         2.120447        -1.495663
 C         2.619124         3.115823        -0.964903
 O         1.842309         2.593756         0.114781
 C         2.221344         1.187552         0.480135
 H        -0.576801         0.145275         0.832012
 H        -0.595265         0.745635        -0.715134
 H        -0.389454        -1.009162        -0.555467
 H         2.502037        -0.857746        -1.980217
 H         4.356375         0.401012        -0.287805
 H         4.641025         2.650089        -1.507111
 H         3.200522         1.838234        -2.485686
 H         3.008988         4.147093        -0.711190
 H         1.888507         3.315897        -1.698705
 H         2.652476         1.009463         1.481786
