19
Iteration:  1563charge 0 multiplicity 1
 C        -0.105661        -0.073122        -0.157462
 C         1.419684         0.094359        -0.060322
 O         2.209532        -1.122868         0.101776
 C         2.377567        -0.276658        -1.072856
 C         3.392348         0.835300        -0.569307
 C         3.763484         2.084533        -1.327739
 C         2.575998         3.221057        -1.064563
 O         1.810348         2.587256         0.081499
 C         2.296384         1.244480         0.375040
 H        -0.487190        -0.437298         0.887117
 H        -0.461732         0.936386        -0.478112
 H        -0.259216        -0.631616        -1.152858
 H         2.160113        -0.616966        -2.054755
 H         4.160078         0.285955        -0.045860
 H         4.788331         2.373191        -1.206489
 H         3.814624         1.876488        -2.374312
 H         2.922351         4.192421        -0.753533
 H         2.068528         3.207762        -2.056134
 H         2.566323         1.269286         1.461311
