19
Iteration:   955
 C        -0.106726         0.214822        -0.247423
 C         1.434184         0.102599        -0.254414
 O         2.156315        -1.128169         0.039174
 C         2.560003        -0.241620        -1.085388
 C         3.482361         0.837013        -0.452371
 C         3.502579         1.985288        -1.427036
 C         2.391205         2.951774        -1.076261
 O         1.973652         2.609676         0.301966
 C         2.383352         1.224920         0.516085
 H        -0.420199        -0.093658         0.703022
 H        -0.428223         1.197618        -0.546990
 H        -0.423473        -0.465455        -1.042116
 H         2.563057        -0.567511        -2.174785
 H         4.448109         0.729186         0.069905
 H         4.423696         2.479130        -1.370152
 H         3.463710         1.700667        -2.490018
 H         2.805046         3.929957        -1.385861
 H         1.545946         2.835062        -1.853666
 H         2.415113         1.096096         1.593781
