19
Iteration:  3478
 C        -0.171009        -0.116855        -0.275299
 C         1.371402         0.093783        -0.093469
 O         2.182082        -1.137961         0.135881
 C         2.461424        -0.233191        -1.076815
 C         3.453322         0.859868        -0.630054
 C         3.590950         2.046382        -1.538334
 C         2.583897         3.137922        -0.991949
 O         1.959440         2.681231         0.210701
 C         2.269367         1.283021         0.556698
 H        -0.561461        -0.507866         0.648516
 H        -0.689093         0.772531        -0.765151
 H        -0.220196        -0.905253        -0.981628
 H         2.647211        -0.760111        -2.081167
 H         4.385988         0.400931        -0.168269
 H         4.723100         2.493233        -1.543822
 H         3.187470         1.903548        -2.576654
 H         3.165524         4.015238        -0.663843
 H         1.824979         3.355284        -1.741091
 H         2.789785         1.139241         1.556953
