19
Iteration:  3329charge 0 multiplicity 1
 C        -0.031994         0.133310        -0.170522
 C         1.453294         0.207878        -0.227689
 O         2.165926        -1.059623         0.013002
 C         2.578146        -0.335866        -1.092315
 C         3.424531         0.772098        -0.571117
 C         3.606056         2.124875        -1.371545
 C         2.300430         2.888307        -1.078198
 O         1.980171         2.578599         0.234186
 C         2.281395         1.254630         0.518342
 H        -0.592857         0.002040         0.743119
 H        -0.282284         1.203338        -0.402853
 H        -0.414534        -0.614199        -0.968553
 H         2.571062        -0.949696        -2.041252
 H         4.351250         0.520239        -0.164073
 H         4.434296         2.629348        -0.812690
 H         3.997495         1.942951        -2.411873
 H         2.413390         3.967543        -1.089631
 H         1.422553         2.721031        -1.806481
 H         2.654644         1.176012         1.546440
