19
Iteration:   767
 C        -0.165854         0.102911        -0.074711
 C         1.318892         0.130114        -0.245454
 O         2.085642        -1.101023        -0.003798
 C         2.559072        -0.302103        -1.086514
 C         3.528817         0.834979        -0.592618
 C         3.696910         2.137818        -1.343969
 C         2.414789         2.903393        -1.215718
 O         2.061066         2.634948         0.248532
 C         2.255892         1.226467         0.499380
 H        -0.361290        -0.623276         0.635945
 H        -0.483212         1.108008         0.207926
 H        -0.701963        -0.018484        -0.989957
 H         2.692585        -0.785918        -2.084770
 H         4.518748         0.524382        -0.181848
 H         4.422127         2.613601        -0.697918
 H         4.239474         2.056833        -2.290296
 H         2.397473         4.035954        -1.099717
 H         1.474127         2.440649        -1.705644
 H         2.387065         1.148436         1.630501
