19
Iteration:  4919charge 0 multiplicity 1
 C        -0.140250         0.005811        -0.107329
 C         1.423630         0.071738        -0.045194
 O         2.141735        -1.195071        -0.080275
 C         2.466771        -0.290536        -1.104412
 C         3.415166         0.924210        -0.592865
 C         3.687896         2.141933        -1.440659
 C         2.587045         3.114050        -0.967696
 O         1.834075         2.535636         0.127390
 C         2.359768         1.308275         0.504937
 H        -0.508736        -0.635748         0.815680
 H        -0.712441         0.972432        -0.220225
 H        -0.361841        -0.611475        -0.968695
 H         2.209510        -0.580548        -2.161026
 H         4.389306         0.513130        -0.287060
 H         4.677806         2.500372        -1.103575
 H         3.624612         1.916948        -2.506571
 H         2.907481         3.970185        -0.438383
 H         1.972342         3.354062        -1.792266
 H         2.817810         1.287574         1.572316
