19
Iteration:  3131
 C        -0.045312         0.120558        -0.102917
 C         1.455889         0.192778        -0.179121
 O         2.148601        -1.094428        -0.071573
 C         2.606275        -0.255510        -1.139567
 C         3.462556         0.815100        -0.460167
 C         3.575366         2.073011        -1.323724
 C         2.340548         2.842624        -1.192654
 O         1.962707         2.636431         0.270335
 C         2.271908         1.275217         0.498357
 H        -0.422534        -0.461175         0.733902
 H        -0.570778         1.120191        -0.186273
 H        -0.352543        -0.295426        -1.015535
 H         2.535886        -0.635160        -2.154777
 H         4.404867         0.366410        -0.253892
 H         4.345890         2.771507        -0.993394
 H         3.975078         1.668220        -2.370803
 H         2.399947         3.919273        -1.248250
 H         1.609032         2.402812        -1.840680
 H         2.522567         1.155443         1.579342
