19
Iteration:  4988
 C        -0.094010         0.163739        -0.242328
 C         1.464844         0.106188        -0.213978
 O         2.051522        -1.108295         0.011653
 C         2.542099        -0.254130        -1.181472
 C         3.530513         0.827679        -0.607581
 C         3.621371         2.228705        -1.318233
 C         2.189412         2.858456        -1.060438
 O         2.135556         2.578179         0.317866
 C         2.384154         1.194589         0.499222
 H        -0.281947         0.006205         0.780802
 H        -0.613240         1.156318        -0.557836
 H        -0.625864        -0.733599        -0.764588
 H         2.286185        -0.918286        -2.015679
 H         4.503650         0.521069        -0.163497
 H         4.300122         2.836840        -0.761628
 H         3.835607         2.109500        -2.457365
 H         2.288883         3.921620        -1.258781
 H         1.344828         2.400754        -1.515791
 H         2.550206         1.124227         1.569732
