19
Iteration:    69charge 0 multiplicity 1
 C        -0.165230         0.184365        -0.309315
 C         1.339716         0.202580         0.003365
 O         2.304318        -1.081022        -0.053799
 C         2.352382        -0.195985        -1.062357
 C         3.513064         0.753139        -0.586814
 C         3.654707         1.949130        -1.461368
 C         2.457389         2.879580        -1.005699
 O         1.947668         2.598395         0.298156
 C         2.364196         1.286822         0.523898
 H        -0.775261        -0.013882         0.557011
 H        -0.493116         1.221756        -0.568145
 H        -0.548649        -0.485222        -1.096718
 H         2.098364        -0.540968        -2.177179
 H         4.463339         0.225418        -0.173231
 H         4.659380         2.456879        -1.252516
 H         3.633385         1.764790        -2.525540
 H         2.722682         3.981103        -1.058792
 H         1.660775         2.693915        -1.714696
 H         2.592880         1.148684         1.517794
