19
Iteration:   257charge 0 multiplicity 1
 C        -0.003247         0.161545        -0.120099
 C         1.412973         0.207948        -0.205729
 O         1.982491        -1.126227        -0.008501
 C         2.476165        -0.335318        -1.151720
 C         3.412146         0.865507        -0.538436
 C         3.659184         2.109941        -1.360008
 C         2.356534         2.974965        -1.114057
 O         2.082499         2.541076         0.229567
 C         2.387036         1.206940         0.481214
 H        -0.295417        -0.077878         0.907840
 H        -0.437870         1.133723        -0.401093
 H        -0.364752        -0.562182        -0.868040
 H         2.539438        -0.926559        -2.025016
 H         4.443883         0.526866        -0.009138
 H         4.321118         2.726119        -0.772746
 H         3.957143         1.977197        -2.480052
 H         2.583902         4.001078        -0.910187
 H         1.463643         2.741072        -1.756800
 H         2.571629         0.968740         1.510177
