19
Iteration:    36
 C        -0.031200         0.178769        -0.109237
 C         1.404345         0.134413        -0.265539
 O         1.964304        -1.106771         0.046857
 C         2.563229        -0.384963        -1.076331
 C         3.493654         0.789711        -0.544731
 C         3.620890         2.116618        -1.381971
 C         2.395053         3.009527        -1.009710
 O         2.059943         2.574494         0.231853
 C         2.315805         1.238168         0.307594
 H        -0.221843        -0.244119         0.869138
 H        -0.291469         1.264114        -0.078199
 H        -0.681594        -0.299877        -0.852411
 H         2.559770        -1.010118        -2.058461
 H         4.462237         0.604721         0.051117
 H         4.555303         2.664323        -1.028913
 H         3.737513         1.894716        -2.426920
 H         2.596320         4.124555        -0.978153
 H         1.553866         2.872472        -1.694495
 H         2.432650         1.100369         1.324369
