19
Iteration:  3359charge 0 multiplicity 1
 C        -0.015227         0.311169        -0.161900
 C         1.491947         0.173126        -0.171398
 O         2.133057        -1.171984        -0.068023
 C         2.534384        -0.184725        -1.091782
 C         3.517818         0.871904        -0.483424
 C         3.692983         2.225877        -1.350839
 C         2.234883         2.712443        -1.180930
 O         1.897235         2.455349         0.198005
 C         2.316434         1.192934         0.618328
 H        -0.364544         0.338079         0.889111
 H        -0.015014         1.408759        -0.540451
 H        -0.617654        -0.282983        -0.838081
 H         2.311638        -0.543405        -2.107278
 H         4.517245         0.556121        -0.164994
 H         4.459875         2.819051        -1.050109
 H         3.829536         1.804250        -2.325983
 H         2.152478         3.801332        -1.242306
 H         1.573437         2.147966        -1.876909
 H         2.623402         1.221041         1.670744
