19
Iteration:  3404
 C        -0.014512         0.200939        -0.192024
 C         1.476006         0.150138        -0.093675
 O         2.134220        -1.125433        -0.096364
 C         2.447600        -0.159099        -1.112266
 C         3.462067         0.830292        -0.461281
 C         3.666187         2.152082        -1.346454
 C         2.295209         2.770074        -1.179986
 O         1.976289         2.558507         0.181888
 C         2.381481         1.260197         0.595347
 H        -0.364510        -0.179902         0.780891
 H        -0.467321         1.224635        -0.363066
 H        -0.341994        -0.692433        -0.823245
 H         2.328332        -0.521860        -2.188238
 H         4.358403         0.318450        -0.123721
 H         4.281810         2.751115        -0.791658
 H         4.008959         1.977619        -2.362742
 H         2.254602         3.846222        -1.306094
 H         1.552787         2.179360        -1.756218
 H         2.291265         1.159639         1.676948
