19
Iteration:  1193charge 0 multiplicity 1
 C        -0.072754         0.146873        -0.298717
 C         1.420212         0.102029        -0.229557
 O         2.079372        -1.140203         0.092646
 C         2.636000        -0.306615        -1.073708
 C         3.474643         0.884011        -0.523072
 C         3.580146         2.104205        -1.435337
 C         2.306539         2.894616        -1.083247
 O         2.053344         2.628382         0.358556
 C         2.326392         1.270173         0.443566
 H        -0.534100        -0.388504         0.512274
 H        -0.373182         1.200574        -0.363483
 H        -0.434444        -0.148453        -1.302652
 H         2.708251        -1.000529        -1.992042
 H         4.372304         0.680431         0.058392
 H         4.546289         2.559861        -1.173627
 H         3.573146         1.883147        -2.567395
 H         2.293163         4.015033        -1.158649
 H         1.380775         2.470152        -1.730246
 H         2.528354         1.219212         1.538142
