19
Iteration:   368
 C        -0.157018         0.232254        -0.211251
 C         1.428718         0.152414        -0.177206
 O         2.211661        -1.041510         0.014455
 C         2.467038        -0.244679        -1.154541
 C         3.467024         0.748302        -0.583963
 C         3.612254         1.994867        -1.361003
 C         2.351501         2.918419        -1.018705
 O         2.070022         2.602874         0.265030
 C         2.306068         1.215427         0.533733
 H        -0.451858        -0.290916         0.728270
 H        -0.473832         1.278931        -0.365466
 H        -0.513272        -0.375215        -1.057004
 H         2.473675        -0.726354        -2.108299
 H         4.509233         0.115043        -0.448037
 H         4.480926         2.636283        -1.219088
 H         3.720512         1.843995        -2.513480
 H         2.430882         4.041582        -1.009456
 H         1.490796         2.712747        -1.811974
 H         2.359569         1.026017         1.644399
