19
Iteration:   603charge 0 multiplicity 1
 C        -0.035594         0.178038        -0.277288
 C         1.406676         0.121454        -0.031854
 O         2.227839        -1.189597        -0.029534
 C         2.411314        -0.189281        -1.091453
 C         3.344401         0.817968        -0.578255
 C         3.571581         2.001401        -1.457287
 C         2.411489         2.884725        -1.092752
 O         2.082433         2.655774         0.294768
 C         2.288292         1.290566         0.626378
 H        -0.742897        -0.297123         0.391873
 H        -0.398897         1.203867        -0.610558
 H        -0.246752        -0.305575        -1.243568
 H         2.241684        -0.448122        -2.127894
 H         4.380652         0.594333        -0.390826
 H         4.461791         2.536420        -1.085486
 H         3.841224         1.778073        -2.490449
 H         2.788400         3.915819        -1.222775
 H         1.615055         2.616381        -1.689599
 H         2.555219         1.131966         1.696168
