19
Iteration:  4296charge 0 multiplicity 1
 C        -0.017811        -0.017626        -0.075893
 C         1.388528         0.220566        -0.284750
 O         2.091219        -1.023862        -0.126076
 C         2.500561        -0.081317        -1.200747
 C         3.455513         0.809292        -0.452247
 C         3.712419         2.074232        -1.265050
 C         2.333595         2.822361        -1.119269
 O         1.991610         2.588653         0.269509
 C         2.308637         1.261003         0.487902
 H        -0.222771        -0.337396         0.979632
 H        -0.648585         0.734079        -0.253116
 H        -0.259346        -0.887089        -0.710752
 H         2.431565        -0.427723        -2.199627
 H         4.403448         0.400781        -0.122411
 H         4.507776         2.667533        -0.879545
 H         3.997075         1.745636        -2.240645
 H         2.450775         3.888280        -1.111496
 H         1.540873         2.406247        -1.735704
 H         2.529336         1.165312         1.523828
