19
Iteration:  2795charge 0 multiplicity 1
 C        -0.096594        -0.147185        -0.149341
 C         1.374360         0.094034        -0.190527
 O         2.209533        -1.097810         0.116542
 C         2.495129        -0.275197        -1.034926
 C         3.419963         0.865262        -0.532355
 C         3.507061         2.110150        -1.585294
 C         2.834996         3.200093        -0.720695
 O         1.786956         2.597801        -0.029532
 C         2.204382         1.271958         0.364333
 H        -0.474416        -0.019549         0.890015
 H        -0.672513         0.605328        -0.854497
 H        -0.221078        -1.160383        -0.492361
 H         2.540854        -0.684671        -2.001266
 H         4.397550         0.571500         0.015869
 H         4.545625         2.225073        -1.885337
 H         2.946602         1.634190        -2.419347
 H         3.581136         3.619922        -0.023325
 H         2.432808         4.051067        -1.292245
 H         2.334668         1.177096         1.478437
