19
Iteration:  1290
 C        -0.095308         0.053159        -0.059884
 C         1.409380         0.213858        -0.247746
 O         2.071410        -1.028723        -0.059361
 C         2.572538        -0.186638        -1.120356
 C         3.542272         0.831969        -0.443850
 C         3.679328         2.109261        -1.280237
 C         2.346189         2.894409        -1.260442
 O         1.983817         2.516177         0.168475
 C         2.303178         1.220777         0.532020
 H        -0.182865         0.041510         1.055481
 H        -0.736023         0.872118        -0.510462
 H        -0.574198        -0.877347        -0.416976
 H         2.554370        -0.522405        -2.194611
 H         4.448650         0.422884        -0.031927
 H         4.281228         2.754222        -0.608277
 H         4.085084         1.946985        -2.369504
 H         2.326772         3.954248        -1.260553
 H         1.640932         2.485655        -1.896359
 H         2.417071         0.929998         1.675899
