19
Iteration:  4343charge 0 multiplicity 1
 C        -0.001410         0.120235        -0.235720
 C         1.433380        -0.038121        -0.036622
 O         2.191398        -1.217100         0.103724
 C         2.385100        -0.232020        -1.195977
 C         3.395752         0.921916        -0.630317
 C         3.686048         2.236274        -1.380064
 C         2.497028         3.130641        -1.002377
 O         1.857756         2.514817         0.180218
 C         2.331104         1.113105         0.433535
 H        -0.591476        -0.096068         0.572264
 H        -0.138828         1.269385        -0.247246
 H        -0.535950        -0.397196        -1.074665
 H         2.294342        -0.801739        -2.159703
 H         4.247131         0.562146         0.009872
 H         4.641667         2.795000        -1.187016
 H         3.661648         2.057947        -2.529671
 H         2.841790         4.074770        -0.636339
 H         1.727230         3.031966        -1.679996
 H         2.574215         1.150312         1.590656
