19
Iteration:  2451charge 0 multiplicity 1
 C        -0.158099         0.053756        -0.221511
 C         1.414566         0.127592        -0.116048
 O         2.179977        -1.132609         0.045873
 C         2.492838        -0.235407        -1.099684
 C         3.455194         0.853848        -0.530942
 C         3.711819         2.153496        -1.294436
 C         2.434982         2.957154        -1.107195
 O         1.881288         2.529941         0.151184
 C         2.367465         1.236289         0.461514
 H        -0.479582         0.175490         0.800983
 H        -0.473532         1.009500        -0.628816
 H        -0.579582        -0.690014        -0.802759
 H         2.220867        -0.678877        -1.986326
 H         4.332407         0.313609        -0.170024
 H         4.589470         2.806428        -1.148807
 H         3.858011         2.048027        -2.385308
 H         2.746336         3.986300        -0.838515
 H         1.872988         3.044080        -2.027498
 H         2.540308         1.305537         1.565186
