19
Iteration:  4339charge 0 multiplicity 1
 C        -0.022537         0.115161        -0.243812
 C         1.444889        -0.045719        -0.041987
 O         2.192029        -1.231279         0.086443
 C         2.361057        -0.215838        -1.178660
 C         3.388349         0.983384        -0.588722
 C         3.712611         2.213219        -1.397954
 C         2.496476         3.106429        -1.000452
 O         1.886603         2.503303         0.184293
 C         2.344503         1.154115         0.415235
 H        -0.562325        -0.169177         0.757792
 H        -0.214268         1.110114        -0.267293
 H        -0.538566        -0.389257        -1.082635
 H         2.247528        -0.725841        -2.087729
 H         4.142769         0.477239         0.025520
 H         4.596535         2.722328        -1.129340
 H         3.706757         2.089906        -2.437321
 H         2.720908         4.146495        -0.676297
 H         1.649914         3.025728        -1.805150
 H         2.524312         1.067104         1.436875
