19
Iteration:  3233
 C        -0.190457         0.074347        -0.209417
 C         1.401631         0.173706        -0.260513
 O         2.197463        -1.118852         0.135410
 C         2.565399        -0.243164        -1.052962
 C         3.483948         0.884053        -0.566783
 C         3.590915         2.095934        -1.420958
 C         2.376512         3.023646        -1.070257
 O         1.972333         2.522441         0.250169
 C         2.363143         1.167138         0.449307
 H        -0.521640         0.122173         0.794681
 H        -0.552955         0.936518        -0.661536
 H        -0.499054        -0.905006        -0.696962
 H         2.730418        -0.607278        -2.106615
 H         4.382636         0.489105        -0.040564
 H         4.584827         2.676732        -1.362535
 H         3.526421         1.977637        -2.548520
 H         2.753506         4.034156        -0.985772
 H         1.688032         3.092812        -1.871587
 H         2.334080         1.059143         1.525641
