19
Iteration:  2137charge 0 multiplicity 1
 C        -0.069677        -0.064951        -0.177124
 C         1.407217         0.157227        -0.136977
 O         2.146191        -1.072435        -0.076385
 C         2.452285        -0.060992        -1.075490
 C         3.450094         0.788112        -0.452883
 C         3.688953         2.111954        -1.353634
 C         2.375414         2.836719        -1.178080
 O         2.089156         2.595415         0.205199
 C         2.249096         1.319048         0.547882
 H        -0.557100        -0.656498         0.665025
 H        -0.538396         0.993131        -0.276867
 H        -0.486693        -0.569842        -1.091188
 H         2.462246        -0.466009        -2.113663
 H         4.425027         0.368032        -0.061857
 H         4.507865         2.797030        -0.898726
 H         3.831494         1.795045        -2.380648
 H         2.382597         3.965683        -1.236286
 H         1.583648         2.479317        -1.795227
 H         2.224441         1.330071         1.673712
