19
Iteration:   102charge 0 multiplicity 1
 C        -0.060152         0.126935        -0.249900
 C         1.450433         0.120547        -0.036471
 O         1.910924        -1.160900        -0.017181
 C         2.477303        -0.158680        -1.067935
 C         3.547311         0.842936        -0.577623
 C         3.637511         2.141814        -1.424840
 C         2.353223         2.920757        -1.206886
 O         2.092130         2.549372         0.277420
 C         2.378788         1.184465         0.584034
 H        -0.457966         0.200844         0.756187
 H        -0.257531         1.132129        -0.665715
 H        -0.409923        -0.753987        -0.785475
 H         2.307940        -0.576625        -2.153977
 H         4.645715         0.558993        -0.411019
 H         4.345036         2.751371        -0.773705
 H         4.085672         2.014359        -2.398722
 H         2.472044         4.042718        -1.146438
 H         1.506583         2.637268        -1.798704
 H         2.531802         1.071778         1.602593
