19
Iteration:   415
 C        -0.100527         0.104007        -0.200686
 C         1.436184         0.148738        -0.093456
 O         2.016924        -1.129737        -0.025245
 C         2.470707        -0.173358        -1.036428
 C         3.567210         0.698505        -0.585545
 C         3.581056         2.106861        -1.417159
 C         2.451981         3.036320        -1.068974
 O         1.975586         2.534135         0.178289
 C         2.455312         1.248800         0.566225
 H        -0.652935        -0.366527         0.671674
 H        -0.442138         1.140678        -0.469334
 H        -0.407460        -0.452247        -1.125679
 H         2.267873        -0.692511        -2.090500
 H         4.543722         0.351121        -0.135086
 H         4.595197         2.571692        -1.328341
 H         3.545717         1.961926        -2.487465
 H         2.634011         4.102007        -0.818806
 H         1.511311         3.063697        -1.733166
 H         2.417863         1.252271         1.732159
