19
Iteration:  1939charge 0 multiplicity 1
 C        -0.045606         0.045757        -0.209223
 C         1.442900         0.142641        -0.119395
 O         2.125181        -1.048941        -0.099077
 C         2.565401        -0.222569        -1.096068
 C         3.480495         0.838712        -0.439651
 C         3.612598         2.040464        -1.347641
 C         2.378907         2.876805        -1.159298
 O         1.894539         2.610117         0.229995
 C         2.308746         1.297873         0.583438
 H        -0.520378        -0.424485         0.671846
 H        -0.418940         1.113176        -0.309351
 H        -0.378140        -0.417226        -1.054582
 H         2.438367        -0.405464        -2.148423
 H         4.365603         0.370643         0.035080
 H         4.672456         2.529221        -1.041353
 H         3.849574         1.749285        -2.455111
 H         2.763174         3.943682        -1.314922
 H         1.689221         2.591847        -2.061971
 H         2.532143         1.182523         1.671277
