19
Iteration:   311
 C        -0.049113         0.296845        -0.214331
 C         1.429579         0.176092        -0.082711
 O         2.136609        -1.109019        -0.088888
 C         2.482280        -0.212867        -1.093970
 C         3.452433         0.781097        -0.542976
 C         3.599630         2.020247        -1.367490
 C         2.319367         2.829373        -1.148450
 O         2.013613         2.561680         0.304683
 C         2.439206         1.204733         0.522608
 H        -0.638467         0.424877         0.682363
 H        -0.405409         1.154449        -0.802847
 H        -0.458400        -0.605579        -0.692209
 H         2.273659        -0.347073        -2.127485
 H         4.401462         0.277443        -0.145664
 H         4.309921         2.732396        -0.899264
 H         3.790321         1.923572        -2.462840
 H         2.420029         3.907013        -1.029917
 H         1.373194         2.596723        -1.730815
 H         2.690113         0.988164         1.515962
