19
Iteration:   873charge 0 multiplicity 1
 C        -0.115629         0.201527        -0.252078
 C         1.360815         0.159185        -0.310280
 O         2.159157        -1.010921         0.111627
 C         2.551050        -0.251065        -1.126249
 C         3.477622         0.782521        -0.555621
 C         3.634868         2.104728        -1.328627
 C         2.316859         2.874007        -1.095820
 O         1.994383         2.540472         0.277647
 C         2.409088         1.190535         0.462983
 H        -0.358818         0.411935         0.910234
 H        -0.608654         1.105473        -0.699377
 H        -0.610604        -0.808954        -0.407044
 H         2.640048        -0.773440        -2.128369
 H         4.447333         0.355342        -0.145461
 H         4.596299         2.603710        -0.929801
 H         3.680624         1.858305        -2.396652
 H         2.373587         3.997560        -1.140440
 H         1.494235         2.470658        -1.752955
 H         2.510953         1.017052         1.560561
