19
Iteration:  1523charge 0 multiplicity 1
 C        -0.047231         0.112157        -0.215976
 C         1.404236         0.166128        -0.150669
 O         2.155375        -1.105612         0.086357
 C         2.538171        -0.244195        -1.090621
 C         3.473532         0.781963        -0.464733
 C         3.661203         2.098614        -1.420752
 C         2.455549         3.034571        -1.089648
 O         1.818579         2.506440         0.156285
 C         2.334118         1.260690         0.498074
 H        -0.545962         0.121790         0.760858
 H        -0.274218         0.981035        -0.849827
 H        -0.313533        -0.718370        -0.839684
 H         2.516901        -0.617019        -2.205585
 H         4.408584         0.425145         0.028007
 H         4.702721         2.533018        -1.387792
 H         3.431065         1.704799        -2.492408
 H         2.750571         4.112171        -0.837182
 H         1.572426         2.930052        -1.769190
 H         2.563742         1.038851         1.557397
