19
Iteration:  3874charge 0 multiplicity 1
 C         0.037070         0.194390        -0.223021
 C         1.469957         0.087529        -0.115080
 O         2.259226        -1.075613         0.137819
 C         2.551323        -0.419003        -1.064840
 C         3.462415         0.783385        -0.574192
 C         3.295544         2.069217        -1.561307
 C         2.734025         3.125697        -0.703598
 O         1.678317         2.527754         0.006412
 C         2.274773         1.269049         0.378681
 H        -0.414614         0.331785         0.732853
 H        -0.284880         0.916720        -1.016527
 H        -0.195598        -0.969001        -0.477167
 H         2.720893        -0.970095        -2.068824
 H         4.531324         0.593781        -0.320996
 H         4.204879         2.238792        -2.051308
 H         2.562604         1.925424        -2.335182
 H         3.505466         3.391494         0.001258
 H         2.415454         4.096647        -1.240209
 H         2.278845         1.329018         1.457148
