19
Iteration:  1146charge 0 multiplicity 1
 C        -0.028346        -0.005276        -0.308754
 C         1.422312         0.149013        -0.097595
 O         2.081315        -1.058272        -0.005656
 C         2.523011        -0.230395        -1.059050
 C         3.436660         0.818490        -0.507457
 C         3.647550         2.061369        -1.462421
 C         2.422397         2.932793        -1.011087
 O         1.941432         2.694694         0.272216
 C         2.348001         1.237239         0.497509
 H        -0.353456        -0.106008         0.721531
 H        -0.318585         0.874040        -0.855546
 H        -0.260004        -0.808422        -0.930556
 H         2.355443        -0.650988        -2.031852
 H         4.373271         0.358469        -0.167999
 H         4.710634         2.474167        -1.267934
 H         3.540831         1.800745        -2.528323
 H         2.542541         3.974547        -1.103638
 H         1.452393         2.678402        -1.684787
 H         2.566605         1.116494         1.607184
