19
Iteration:  1800
 C        -0.061666         0.041672        -0.333299
 C         1.418683         0.175098        -0.270160
 O         2.102029        -1.010348         0.098972
 C         2.565033        -0.301033        -1.019051
 C         3.510972         0.844727        -0.514272
 C         3.578474         2.036170        -1.387180
 C         2.383635         2.981589        -1.044543
 O         1.982793         2.571271         0.267594
 C         2.343755         1.252343         0.431645
 H        -0.296886        -0.127324         0.788991
 H        -0.605819         1.020508        -0.585018
 H        -0.555563        -0.829861        -0.943287
 H         2.442932        -0.774677        -2.003137
 H         4.431932         0.352704        -0.048655
 H         4.461428         2.653024        -1.198716
 H         3.622824         1.810821        -2.451934
 H         2.524596         4.082386        -0.906236
 H         1.463057         2.864029        -1.718728
 H         2.525491         1.055892         1.477659
