19
Iteration:  2743
 C        -0.151566         0.013989        -0.207692
 C         1.412604         0.022835        -0.046504
 O         2.219436        -1.097371         0.085890
 C         2.530068        -0.298232        -1.054582
 C         3.453195         0.851704        -0.610805
 C         3.600988         2.141588        -1.512903
 C         2.706336         3.199155        -0.874659
 O         1.757785         2.474012        -0.010203
 C         2.228705         1.302762         0.526629
 H        -0.598962        -0.602995         0.575295
 H        -0.410330         1.055246        -0.107692
 H        -0.535135        -0.409799        -1.107452
 H         2.549621        -0.829014        -1.970183
 H         4.502873         0.578943        -0.274738
 H         4.772503         2.200709        -1.541520
 H         3.248912         1.750178        -2.563221
 H         3.198867         3.993189        -0.252256
 H         2.072375         3.612399        -1.603102
 H         2.427403         1.262081         1.626803
