19
Iteration:  1777charge 0 multiplicity 1
 C        -0.100082         0.202277        -0.380931
 C         1.422446         0.058267        -0.144422
 O         2.185911        -1.123252         0.192129
 C         2.598128        -0.366986        -1.011043
 C         3.415218         0.820951        -0.618297
 C         3.600502         2.201398        -1.470733
 C         2.387188         2.990287        -1.064423
 O         2.010746         2.598018         0.304065
 C         2.273205         1.195957         0.455717
 H        -0.855718        -0.195279         0.433843
 H        -0.456504         1.258736        -0.742815
 H        -0.300405        -0.491434        -1.277640
 H         2.691413        -0.890477        -1.921354
 H         4.298247         0.308329        -0.138377
 H         4.581465         2.698344        -1.237580
 H         3.601141         2.000335        -2.484011
 H         2.399244         4.108179        -0.942388
 H         1.472666         2.786190        -1.684646
 H         2.502680         1.039209         1.507372
