19
Iteration:  4818charge 0 multiplicity 1
 C        -0.135019        -0.165437        -0.140918
 C         1.437290         0.150887        -0.123896
 O         2.222034        -1.105022         0.098045
 C         2.462920        -0.184879        -1.091864
 C         3.432187         0.911419        -0.678180
 C         3.552230         2.085847        -1.513779
 C         2.912946         3.132622        -0.680681
 O         1.689237         2.561806        -0.049900
 C         2.198345         1.245664         0.409734
 H        -0.456039        -0.180176         1.027559
 H        -0.675182         0.545992        -0.674473
 H        -0.289856        -1.210635        -0.500376
 H         2.189192        -0.642601        -2.004107
 H         4.344450         0.458237        -0.359196
 H         4.593916         2.273363        -1.853471
 H         2.928747         2.099639        -2.370775
 H         3.677508         3.463519         0.082387
 H         2.572946         4.002452        -1.209929
 H         2.429208         1.216312         1.547050
