19
Iteration:  2188charge 0 multiplicity 1
 C        -0.014299         0.236513        -0.141902
 C         1.465863         0.092390        -0.139729
 O         2.130761        -1.135101        -0.004118
 C         2.521884        -0.217926        -1.089675
 C         3.416831         0.862627        -0.521882
 C         3.709972         2.197294        -1.280291
 C         2.384287         2.919410        -1.134364
 O         1.853113         2.465370         0.117638
 C         2.329134         1.121572         0.449873
 H        -0.403878        -0.010996         0.888909
 H        -0.457549         1.279882        -0.223631
 H        -0.457323        -0.460891        -0.797451
 H         2.376880        -0.584111        -2.141157
 H         4.361352         0.631623        -0.102929
 H         4.452446         2.724919        -0.766891
 H         3.974100         1.932998        -2.329191
 H         2.597004         4.004606        -0.911548
 H         1.690177         2.910267        -2.035431
 H         2.592013         1.179949         1.523672
