19
Iteration:  4013
 C        -0.092698         0.191094        -0.134188
 C         1.427947         0.160951        -0.095803
 O         2.192481        -1.087128        -0.069085
 C         2.412217        -0.131958        -1.112243
 C         3.512759         0.828982        -0.584068
 C         3.664723         2.151067        -1.236229
 C         2.340941         2.717357        -1.157631
 O         1.893438         2.521173         0.165034
 C         2.428398         1.255827         0.520012
 H        -0.453463        -0.466682         0.715070
 H        -0.575784         1.102092        -0.057702
 H        -0.414407        -0.347200        -1.038430
 H         2.374877        -0.436670        -2.241301
 H         4.344970         0.229771        -0.196678
 H         4.502313         2.665659        -0.657510
 H         3.987634         2.237959        -2.313896
 H         2.329980         3.818111        -1.241098
 H         1.597167         2.414947        -1.852377
 H         2.834725         1.202456         1.578178
