19
Iteration:   596
 C        -0.112759         0.175434        -0.310264
 C         1.337648         0.128891        -0.053476
 O         2.244514        -1.187855         0.008483
 C         2.439006        -0.193345        -1.092549
 C         3.410649         0.823033        -0.574903
 C         3.676582         2.025058        -1.439795
 C         2.383359         2.893507        -1.089644
 O         2.038348         2.655928         0.304520
 C         2.315885         1.254824         0.563113
 H        -0.676898        -0.276647         0.582194
 H        -0.176164         1.333084        -0.161479
 H        -0.330153        -0.259810        -1.328553
 H         2.116762        -0.576138        -2.079090
 H         4.409130         0.325227        -0.399782
 H         4.664790         2.453408        -1.205881
 H         3.655504         1.871752        -2.584868
 H         2.596186         3.977215        -1.194635
 H         1.356056         2.640924        -1.611503
 H         2.693190         1.176762         1.584341
