19
Iteration:  3479
 C        -0.173915        -0.108526        -0.267427
 C         1.370358         0.094227        -0.094994
 O         2.183607        -1.140803         0.131612
 C         2.462113        -0.229830        -1.056772
 C         3.456238         0.864262        -0.629541
 C         3.588035         2.047307        -1.539779
 C         2.588020         3.139944        -0.992458
 O         1.962387         2.672092         0.204718
 C         2.265685         1.283695         0.559533
 H        -0.554490        -0.504858         0.638783
 H        -0.690461         0.745155        -0.818318
 H        -0.169535        -0.921331        -1.014915
 H         2.652863        -0.727492        -2.081905
 H         4.371461         0.388685        -0.228458
 H         4.666952         2.494799        -1.558992
 H         3.199717         1.883866        -2.586234
 H         3.170067         4.009818        -0.675830
 H         1.816999         3.400062        -1.720165
 H         2.752319         1.088104         1.561560
