19
Iteration:  1596
 C        -0.157850        -0.110423         0.017829
 C         1.276798         0.158914        -0.196455
 O         2.163359        -1.020867        -0.003343
 C         2.576357        -0.211301        -1.084197
 C         3.427821         0.849301        -0.477587
 C         3.793765         2.022158        -1.339479
 C         2.612034         3.194958        -1.090819
 O         1.819137         2.546210         0.032808
 C         2.232264         1.208306         0.411751
 H        -0.270004        -0.734054         1.013559
 H        -0.629417         0.925651        -0.050944
 H        -0.509090        -0.866912        -0.816189
 H         2.675497        -0.591132        -2.090707
 H         4.325125         0.392885        -0.080643
 H         4.814232         2.197276        -1.018376
 H         3.751309         1.771233        -2.447832
 H         2.911097         4.191495        -0.804161
 H         1.922856         3.289106        -1.967233
 H         2.380855         1.127426         1.521277
