19
Iteration:  2540
 C        -0.027713        -0.015458        -0.303846
 C         1.409274         0.110977        -0.165362
 O         2.205102        -1.120060         0.245865
 C         2.499767        -0.279929        -0.996877
 C         3.379002         0.819629        -0.629542
 C         3.538102         2.036406        -1.489184
 C         2.710515         3.239180        -0.813778
 O         1.749807         2.587770         0.011892
 C         2.304186         1.176199         0.412045
 H        -0.350923        -0.462411         0.656005
 H        -0.546870         0.906387        -0.369135
 H        -0.288502        -0.672783        -1.160972
 H         2.515908        -0.752138        -2.000939
 H         4.320551         0.518832        -0.196851
 H         4.564972         2.259379        -1.749791
 H         2.914473         1.976228        -2.480856
 H         3.514513         3.900008        -0.336580
 H         2.079717         3.937949        -1.488747
 H         2.467590         1.303154         1.474785
