19
Iteration:  2101
 C        -0.065014         0.042414        -0.261281
 C         1.367549         0.203311        -0.190518
 O         2.134050        -1.038268         0.106612
 C         2.504643        -0.292327        -1.094636
 C         3.443278         0.782814        -0.583312
 C         3.667948         2.177438        -1.314655
 C         2.321077         2.884859        -1.105778
 O         2.013021         2.539855         0.274604
 C         2.352692         1.285239         0.393920
 H        -0.474462        -0.205003         0.824492
 H        -0.501492         1.170358        -0.450264
 H        -0.285399        -0.666450        -1.062132
 H         2.647094        -0.752938        -2.091508
 H         4.301404         0.317180        -0.149623
 H         4.483656         2.616295        -0.835201
 H         3.993015         2.097245        -2.384028
 H         2.417096         4.003755        -1.048013
 H         1.572248         2.601639        -1.891779
 H         2.620986         1.233596         1.497617
