19
Iteration:   278
 C        -0.116803         0.237991        -0.214096
 C         1.417750         0.137176        -0.043366
 O         2.120073        -1.154541        -0.058717
 C         2.467788        -0.154534        -1.092281
 C         3.518001         0.712707        -0.570363
 C         3.643600         2.139232        -1.404298
 C         2.397948         2.883247        -1.088705
 O         1.926793         2.566596         0.265623
 C         2.447185         1.231892         0.543551
 H        -0.602137         0.235313         0.757090
 H        -0.318777         1.174753        -0.753619
 H        -0.454237        -0.591864        -0.856740
 H         2.124124        -0.427111        -2.056887
 H         4.465282         0.100563        -0.296465
 H         4.604617         2.583902        -1.161936
 H         3.547170         1.794537        -2.500069
 H         2.639422         3.955904        -1.093861
 H         1.616557         2.579225        -1.862139
 H         2.558539         1.192786         1.584700
