19
Iteration:  1244charge 0 multiplicity 1
 C        -0.043827         0.311867        -0.297281
 C         1.422409         0.116127        -0.057481
 O         2.234736        -1.125640        -0.011957
 C         2.495234        -0.151354        -1.049130
 C         3.471498         0.834099        -0.487296
 C         3.635806         2.145505        -1.404957
 C         2.284955         2.766813        -1.190908
 O         1.891624         2.535041         0.248435
 C         2.376965         1.122181         0.588404
 H        -0.606844        -0.099722         0.604042
 H        -0.146066         1.454483        -0.443844
 H        -0.348491        -0.187065        -1.244954
 H         2.431241        -0.455482        -2.161820
 H         4.426975         0.357253        -0.150745
 H         4.492164         2.788753        -1.062538
 H         3.710538         1.783962        -2.444326
 H         2.391948         3.814208        -1.292678
 H         1.559283         2.408087        -1.845397
 H         2.586006         1.281743         1.679601
