19
Iteration:  1834
 C        -0.117361         0.001529        -0.248153
 C         1.375797         0.118263        -0.160702
 O         2.170998        -1.142511        -0.101463
 C         2.515891        -0.166643        -1.029503
 C         3.476019         0.882878        -0.431759
 C         3.687497         2.080432        -1.382862
 C         2.408401         2.880241        -1.136910
 O         1.996412         2.645630         0.246143
 C         2.284255         1.323907         0.543357
 H        -0.460435        -0.028780         0.845076
 H        -0.587807         0.921702        -0.677741
 H        -0.678718        -0.979403        -0.691993
 H         2.281685        -0.309843        -2.162933
 H         4.364753         0.372044         0.079543
 H         4.555934         2.609917        -1.056083
 H         3.833817         1.551254        -2.356262
 H         2.643882         3.959148        -1.238350
 H         1.529858         2.598429        -1.865508
 H         2.511605         1.257678         1.597697
