19
Iteration:  1678
 C        -0.040537         0.237373        -0.268093
 C         1.444824         0.110109        -0.136834
 O         2.174818        -1.070894         0.066258
 C         2.438110        -0.253338        -1.144366
 C         3.499825         0.811762        -0.525498
 C         3.702385         2.171731        -1.267989
 C         2.326872         2.794254        -1.215752
 O         1.901485         2.567445         0.252860
 C         2.333896         1.206493         0.477291
 H        -0.458546         0.174620         0.752258
 H        -0.604377         1.090622        -0.643019
 H        -0.290946        -0.688094        -0.752347
 H         2.368902        -0.731449        -2.100803
 H         4.454591         0.409449        -0.100781
 H         4.519040         2.705518        -0.752349
 H         3.978752         2.195574        -2.250911
 H         2.396395         3.919007        -1.315515
 H         1.511972         2.372618        -1.849242
 H         2.672715         1.111666         1.514069
