19
Iteration:  3807
 C        -0.056934        -0.181355        -0.299145
 C         1.398558         0.164793        -0.126995
 O         2.195322        -1.074837         0.220521
 C         2.447335        -0.230180        -1.084828
 C         3.352186         0.845956        -0.585362
 C         3.403005         2.000426        -1.679610
 C         2.839411         3.164370        -0.816344
 O         1.841548         2.658474         0.187472
 C         2.311498         1.306572         0.440764
 H        -0.437171        -0.740447         0.573244
 H        -0.706580         0.614525        -0.649320
 H         0.022613        -0.980341        -1.190256
 H         2.363867        -0.993164        -1.828108
 H         4.352461         0.439778        -0.322242
 H         4.419170         2.309722        -1.790378
 H         2.966734         1.814450        -2.624283
 H         3.582078         3.784310        -0.370408
 H         2.165735         3.888218        -1.352189
 H         2.568475         1.133093         1.481963
