19
Iteration:  3639charge 0 multiplicity 1
 C        -0.025980        -0.282914        -0.074545
 C         1.346897         0.111296        -0.234594
 O         2.109643        -0.987365         0.103403
 C         2.601177        -0.306565        -1.056352
 C         3.354562         0.858052        -0.611556
 C         3.516224         2.057072        -1.558584
 C         2.839277         3.217944        -0.802782
 O         1.850819         2.682574         0.068987
 C         2.167926         1.273549         0.365408
 H        -0.342270        -0.641204         1.039139
 H        -0.740383         0.611847        -0.295171
 H        -0.465959        -1.067970        -0.647927
 H         2.491814        -0.788106        -2.047378
 H         4.345974         0.411543        -0.240765
 H         4.619496         2.046938        -1.691048
 H         3.047277         1.827122        -2.486767
 H         3.641473         3.603793        -0.148718
 H         2.433902         4.001393        -1.443752
 H         2.227447         1.187618         1.503046
