19
Iteration:  2970
 C        -0.069868         0.075527        -0.265754
 C         1.441421         0.153456        -0.075772
 O         2.223495        -1.172116         0.111455
 C         2.472752        -0.315122        -1.066540
 C         3.418642         0.821521        -0.587889
 C         3.588573         2.084271        -1.489172
 C         2.570545         3.205981        -0.914069
 O         1.816266         2.491158         0.112403
 C         2.313049         1.270441         0.479509
 H        -0.555472        -0.300686         0.668873
 H        -0.412724         1.185292        -0.506434
 H        -0.441398        -0.577139        -1.096132
 H         2.450453        -0.903856        -1.979859
 H         4.462355         0.378439        -0.353064
 H         4.637176         2.375321        -1.560420
 H         3.225254         2.057423        -2.468480
 H         2.987878         4.144348        -0.493267
 H         1.696218         3.234037        -1.669610
 H         2.724440         1.189983         1.546727
