19
Iteration:   224
 C        -0.276761         0.103673        -0.100038
 C         1.335919         0.202849        -0.255009
 O         2.227696        -1.026773        -0.011419
 C         2.490538        -0.243805        -1.152493
 C         3.452326         0.833395        -0.632017
 C         3.748823         2.025222        -1.414126
 C         2.435078         2.825029        -1.031334
 O         2.012744         2.617264         0.333260
 C         2.316935         1.288747         0.480561
 H        -0.588070        -0.365022         0.834808
 H        -0.506164         1.171748        -0.163553
 H        -0.677143        -0.374038        -0.997922
 H         2.519775        -0.916002        -1.969237
 H         4.321595         0.311077        -0.050404
 H         4.654503         2.465983        -1.020438
 H         3.983957         1.799751        -2.501812
 H         2.588584         3.888688        -1.159500
 H         1.628176         2.598587        -1.732439
 H         2.431127         1.003253         1.495253
