19
Iteration:    47charge 0 multiplicity 1
 C        -0.096290         0.232429        -0.172729
 C         1.387381         0.088055        -0.231778
 O         2.123208        -1.068895         0.094403
 C         2.510717        -0.251280        -1.159443
 C         3.392476         0.838425        -0.512388
 C         3.614684         2.095845        -1.441216
 C         2.463199         2.980406        -1.087561
 O         2.078406         2.535931         0.246881
 C         2.264870         1.127995         0.480546
 H        -0.348458        -0.185758         0.797349
 H        -0.415133         1.295267        -0.121255
 H        -0.686949        -0.331616        -0.913695
 H         2.662145        -0.895057        -2.107965
 H         4.354862         0.439910        -0.037577
 H         4.604733         2.563826        -1.154501
 H         3.654643         1.893153        -2.502411
 H         2.713367         4.076598        -0.983315
 H         1.654960         2.857941        -1.804617
 H         2.371189         0.914694         1.493755
