19
Iteration:    94
 C         0.060847         0.107922        -0.266395
 C         1.423855         0.123225         0.007556
 O         1.945888        -1.154483        -0.029073
 C         2.410861        -0.144457        -1.073433
 C         3.439186         0.858664        -0.569044
 C         3.620336         2.101930        -1.390715
 C         2.380276         2.944038        -1.192248
 O         2.066520         2.546877         0.262437
 C         2.431091         1.229235         0.612051
 H        -0.736541         0.054754         0.536512
 H        -0.200772         1.043034        -0.824305
 H        -0.202838        -0.739263        -0.940843
 H         2.201868        -0.269908        -2.124715
 H         4.506518         0.353116        -0.579659
 H         4.503151         2.598347        -0.969069
 H         3.965290         1.704767        -2.416839
 H         2.590131         4.008813        -1.156725
 H         1.514485         2.686227        -1.871481
 H         2.693671         1.078814         1.719063
