19
Iteration:  4195
 C        -0.037665         0.131423        -0.226947
 C         1.464012         0.100897        -0.205651
 O         2.204398        -1.156118         0.005484
 C         2.585385        -0.315894        -1.125442
 C         3.420347         0.860343        -0.518881
 C         3.524544         2.112942        -1.423909
 C         2.437837         3.088641        -0.973987
 O         1.914871         2.559824         0.240981
 C         2.259306         1.167354         0.504905
 H        -0.519929        -0.043315         0.766502
 H        -0.376842         1.162654        -0.406686
 H        -0.478853        -0.325455        -1.047968
 H         2.498540        -0.890391        -2.122377
 H         4.443014         0.592945        -0.156885
 H         4.593935         2.371480        -1.386529
 H         3.377602         1.753324        -2.423777
 H         2.989106         4.081336        -0.815801
 H         1.705234         3.513012        -1.640019
 H         2.249668         1.015491         1.561532
