19
Iteration:   845
 C        -0.040207         0.157289        -0.202155
 C         1.425257         0.132717        -0.125526
 O         2.070181        -1.168730        -0.049626
 C         2.553693        -0.195062        -1.090324
 C         3.500536         0.822789        -0.470990
 C         3.646315         2.055383        -1.424451
 C         2.422791         2.907714        -1.142885
 O         1.909700         2.613101         0.204327
 C         2.343670         1.244133         0.598160
 H        -0.324204        -0.067910         0.756890
 H        -0.519838         1.083124        -0.434292
 H        -0.399811        -0.702695        -0.706631
 H         2.457772        -0.317286        -2.122741
 H         4.428343         0.417891        -0.109238
 H         4.573456         2.502480        -1.209507
 H         3.651285         1.763169        -2.489189
 H         2.563709         3.987479        -1.123213
 H         1.533771         2.880391        -1.802144
 H         2.366747         1.286094         1.693115
