19
Iteration:  3077
 C        -0.045658        -0.047363        -0.241240
 C         1.423300         0.129540        -0.143199
 O         2.214359        -1.086121         0.120987
 C         2.455129        -0.240134        -1.067774
 C         3.326232         0.779406        -0.605894
 C         3.608890         2.066704        -1.417954
 C         2.536370         3.104551        -0.960572
 O         1.863387         2.569958         0.129194
 C         2.352821         1.293197         0.453284
 H        -0.412817        -0.139393         0.759576
 H        -0.531281         0.950051        -0.478543
 H        -0.421616        -0.759317        -0.896471
 H         2.397923        -0.669151        -2.055970
 H         4.227626         0.223619        -0.399536
 H         4.451285         2.520202        -0.906361
 H         3.695367         1.910753        -2.598928
 H         2.970093         4.053757        -0.647895
 H         1.770407         3.345822        -1.747643
 H         2.954073         1.235434         1.400868
