19
Iteration:  1090charge 0 multiplicity 1
 C         0.004875         0.172726        -0.112176
 C         1.469777         0.119600        -0.220586
 O         2.163911        -1.031750         0.078778
 C         2.524869        -0.157328        -1.252330
 C         3.458484         0.756985        -0.560442
 C         3.732014         2.145400        -1.261333
 C         2.412358         2.830615        -1.134600
 O         1.824650         2.525238         0.241294
 C         2.230459         1.222302         0.444910
 H        -0.349653         0.478267         0.852771
 H        -0.368957         0.990362        -0.669727
 H        -0.555662        -0.655596        -0.448952
 H         2.416691        -0.719237        -2.090326
 H         4.359981         0.136374        -0.451981
 H         4.661526         2.581173        -0.766358
 H         3.963829         2.046226        -2.290963
 H         2.532141         3.897506        -1.185405
 H         1.478610         2.514751        -1.799125
 H         2.283964         1.196323         1.518766
