19
Iteration:  4349
 C        -0.003347         0.158436        -0.222317
 C         1.436677        -0.015487        -0.073561
 O         2.194561        -1.183073         0.101628
 C         2.445407        -0.268813        -1.180281
 C         3.420672         0.801376        -0.668561
 C         3.639659         2.258799        -1.384104
 C         2.498477         3.130176        -0.965564
 O         1.816308         2.517663         0.182340
 C         2.306779         1.126548         0.491445
 H        -0.735824        -0.138819         0.654672
 H        -0.053425         1.246646        -0.362786
 H        -0.368674        -0.362260        -1.117534
 H         2.367257        -0.803262        -2.095287
 H         4.437283         0.564289        -0.322788
 H         4.615143         2.679620        -1.186965
 H         3.630013         2.048040        -2.412763
 H         2.915194         4.136590        -0.680604
 H         1.686771         3.261390        -1.825110
 H         2.629309         1.155782         1.475432
