19
Iteration:  4716
 C         0.027501         0.185615        -0.321919
 C         1.482517        -0.012948        -0.107799
 O         2.191360        -1.187654         0.101209
 C         2.573606        -0.339556        -1.029886
 C         3.469661         0.861296        -0.583134
 C         3.281526         1.975306        -1.596482
 C         2.667664         3.225337        -0.830319
 O         1.776763         2.566362         0.205204
 C         2.296205         1.221334         0.478141
 H        -0.607329         0.109455         0.548676
 H        -0.034585         1.313040        -0.752550
 H        -0.244568        -0.555122        -1.155049
 H         2.557566        -0.682175        -2.118615
 H         4.505959         0.716517        -0.217603
 H         4.217310         2.321482        -1.950824
 H         2.667970         1.763327        -2.454587
 H         3.505838         3.744175        -0.336416
 H         2.075596         4.045632        -1.484581
 H         2.510112         1.200936         1.553973
