19
Iteration:  4529
 C        -0.023793         0.307007        -0.103726
 C         1.489561         0.161696        -0.097992
 O         2.137482        -1.131948        -0.215257
 C         2.517582        -0.099765        -1.118031
 C         3.571207         0.909286        -0.450732
 C         3.653622         2.042272        -1.357267
 C         2.302770         2.771555        -1.149406
 O         1.765053         2.424924         0.253955
 C         2.380584         1.197313         0.572338
 H        -0.449215        -0.008952         0.770923
 H        -0.353063         1.448683        -0.304132
 H        -0.255525        -0.272315        -0.958154
 H         2.425445        -0.486608        -2.120402
 H         4.599900         0.574289        -0.138237
 H         4.388472         2.764314        -1.040111
 H         3.787608         1.796064        -2.430306
 H         2.611325         3.775767        -1.024296
 H         1.635306         2.441355        -1.961079
 H         2.698289         1.244299         1.672831
