19
Iteration:  4165
 C        -0.141709        -0.074005        -0.326192
 C         1.414074         0.220135        -0.264717
 O         2.132087        -1.072017         0.046054
 C         2.609180        -0.228512        -1.036284
 C         3.437199         0.867968        -0.546334
 C         3.471210         2.039854        -1.511396
 C         2.508480         3.053997        -0.951591
 O         2.026969         2.615006         0.354231
 C         2.308718         1.225010         0.477362
 H        -0.488527        -0.500735         0.711585
 H        -0.781340         0.708236        -0.629628
 H        -0.287413        -0.899731        -1.082332
 H         2.696978        -0.794216        -2.014994
 H         4.457270         0.656176        -0.218820
 H         4.538603         2.356547        -1.503285
 H         3.167164         1.708997        -2.514148
 H         3.127820         3.953683        -0.681738
 H         1.575782         3.283754        -1.487728
 H         2.399073         1.039111         1.562422
