19
Iteration:  1555charge 0 multiplicity 1
 C        -0.093582        -0.049251        -0.166155
 C         1.406374         0.094648        -0.057880
 O         2.233292        -1.135694         0.091504
 C         2.411674        -0.270259        -1.075239
 C         3.348377         0.769922        -0.599899
 C         3.726428         2.136353        -1.380922
 C         2.611369         3.143503        -1.076213
 O         1.835710         2.564753         0.066944
 C         2.302451         1.308225         0.506384
 H        -0.922547        -0.252727         0.480403
 H        -0.376347         0.976202        -0.432726
 H        -0.361157        -0.693480        -0.985304
 H         2.396643        -0.695338        -2.139577
 H         4.171519         0.289766        -0.079169
 H         4.669747         2.545752        -1.033136
 H         3.707647         1.964752        -2.422326
 H         2.848446         4.186585        -0.724932
 H         1.921483         3.325836        -1.971103
 H         2.517066         1.330997         1.603183
