19
Iteration:   582
 C        -0.130830         0.210388        -0.226850
 C         1.413866         0.121657        -0.121878
 O         2.160024        -1.074347         0.042814
 C         2.423552        -0.264906        -1.083508
 C         3.497808         0.772149        -0.568553
 C         3.645128         2.111750        -1.416155
 C         2.367840         2.932599        -1.064871
 O         2.013508         2.558174         0.278168
 C         2.422289         1.210921         0.452942
 H        -0.685651        -0.451118         0.474181
 H        -0.588515         1.283049        -0.201980
 H        -0.605575        -0.063799        -1.213699
 H         2.437701        -0.679638        -2.061331
 H         4.341034         0.367319        -0.015877
 H         4.540292         2.723488        -1.242217
 H         3.679853         1.787980        -2.484397
 H         2.418192         4.046659        -1.106365
 H         1.734571         2.534955        -1.840435
 H         2.516442         1.019856         1.539833
