19
Iteration:   887charge 0 multiplicity 1
 C        -0.146465         0.227162        -0.268422
 C         1.424699         0.105549        -0.191194
 O         2.175622        -1.106568         0.102634
 C         2.528922        -0.312300        -1.097213
 C         3.490572         0.815111        -0.609760
 C         3.626512         2.172060        -1.390600
 C         2.316952         2.844320        -1.084376
 O         2.115836         2.618656         0.313979
 C         2.235808         1.187228         0.463834
 H        -0.484486         0.537423         0.740265
 H        -0.440518         0.926920        -1.085088
 H        -0.636941        -0.680347        -0.580678
 H         2.435191        -0.857372        -1.975223
 H         4.476440         0.407991        -0.353175
 H         4.291120         2.777943        -0.831914
 H         4.068255         2.226954        -2.364166
 H         2.330250         3.941913        -1.283740
 H         1.424113         2.541096        -1.722616
 H         2.391210         0.958144         1.559880
