19
Iteration:  3973
 C        -0.197053        -0.105923        -0.067365
 C         1.355868         0.123801        -0.162451
 O         2.197793        -1.156967        -0.038519
 C         2.508570        -0.240501        -1.084589
 C         3.383670         0.848040        -0.582283
 C         3.725586         2.125195        -1.362700
 C         2.544855         3.045949        -1.051488
 O         1.947054         2.639515         0.176887
 C         2.288746         1.328939         0.441961
 H        -0.241824        -0.761719         0.749009
 H        -0.634445         0.914325         0.230260
 H        -0.939147        -0.553277        -0.887109
 H         2.450850        -0.703205        -2.119201
 H         4.274338         0.508077        -0.025217
 H         4.605685         2.618971        -1.109302
 H         3.773017         1.992542        -2.431189
 H         2.876217         4.057286        -1.123672
 H         1.827707         2.890308        -1.964066
 H         2.601729         1.257048         1.520826
