19
Iteration:  3986
 C        -0.059966        -0.026745        -0.032748
 C         1.389433         0.097597        -0.135689
 O         2.158555        -1.130713        -0.028550
 C         2.391666        -0.259447        -1.162053
 C         3.463825         0.852125        -0.511180
 C         3.720760         2.170993        -1.303472
 C         2.455975         3.006660        -1.141998
 O         1.970314         2.666643         0.158100
 C         2.288854         1.228627         0.429615
 H        -0.482007        -0.816003         0.685660
 H        -0.686320         0.951936         0.196739
 H        -0.246731        -0.372563        -1.076470
 H         2.358329        -0.646699        -2.132299
 H         4.327680         0.306526        -0.095129
 H         4.645248         2.599584        -0.919432
 H         3.915874         1.936003        -2.372551
 H         2.539746         4.104787        -1.033223
 H         1.615755         2.820444        -1.909921
 H         2.379883         1.152615         1.501219
