19
Iteration:   309charge 0 multiplicity 1
 C        -0.037792         0.305144        -0.219553
 C         1.423135         0.167680        -0.060360
 O         2.155389        -1.097519        -0.095125
 C         2.485334        -0.185544        -1.079258
 C         3.428615         0.788268        -0.537427
 C         3.609558         2.015472        -1.400195
 C         2.316589         2.822269        -1.146577
 O         2.012255         2.546836         0.308706
 C         2.427293         1.197516         0.509755
 H        -0.640484         0.438388         0.675010
 H        -0.394044         1.164712        -0.823103
 H        -0.417630        -0.615683        -0.703463
 H         2.185516        -0.353852        -2.195580
 H         4.294624         0.331958        -0.141870
 H         4.345457         2.669190        -0.825102
 H         3.806971         1.815574        -2.432073
 H         2.474245         3.909111        -0.962148
 H         1.405095         2.572472        -1.713073
 H         2.666186         0.991065         1.538850
