19
Iteration:  2479charge 0 multiplicity 1
 C        -0.008726         0.110409        -0.149562
 C         1.455109         0.135439        -0.070310
 O         2.142183        -1.115970        -0.039651
 C         2.592958        -0.269372        -1.077857
 C         3.402300         0.871963        -0.460975
 C         3.633797         2.054005        -1.409515
 C         2.515666         3.008066        -1.035164
 O         1.785187         2.564092         0.083502
 C         2.261727         1.192672         0.502842
 H        -0.498042        -0.117993         0.854132
 H        -0.327530         1.152518        -0.541340
 H        -0.288120        -0.668701        -0.946341
 H         2.481762        -0.777210        -2.099124
 H         4.357693         0.481717        -0.041327
 H         4.600521         2.597293        -1.423448
 H         3.540464         1.799082        -2.480150
 H         3.001434         3.911357        -0.621421
 H         1.971262         3.353554        -1.954276
 H         2.316058         1.301148         1.587608
