19
Iteration:  2698
 C        -0.083785         0.089162        -0.143848
 C         1.448339         0.106392        -0.150227
 O         2.175171        -1.158795         0.036878
 C         2.602522        -0.229316        -1.034048
 C         3.442986         0.885218        -0.465864
 C         3.559045         2.044370        -1.468756
 C         2.656607         3.139783        -0.936889
 O         1.683618         2.503525        -0.037344
 C         2.296357         1.170929         0.525114
 H        -0.483197        -0.410218         0.704768
 H        -0.329710         1.192595        -0.128717
 H        -0.480649        -0.375260        -0.997272
 H         2.742402        -0.704960        -1.964385
 H         4.463354         0.477284        -0.163118
 H         4.568575         2.585349        -1.670451
 H         3.017699         1.830364        -2.504153
 H         3.236045         3.969913        -0.378629
 H         2.193794         3.563423        -1.778603
 H         2.490718         1.313852         1.608221
