19
Iteration:  4481
 C        -0.081884         0.125194        -0.327936
 C         1.476214         0.157629        -0.181700
 O         2.155423        -1.117625         0.014954
 C         2.534661        -0.334155        -1.120950
 C         3.446047         0.800801        -0.619806
 C         3.568827         2.170562        -1.382064
 C         2.246520         2.888732        -0.986555
 O         2.077581         2.638806         0.358172
 C         2.364940         1.227929         0.482182
 H        -0.556428         0.088552         0.745600
 H        -0.377468         1.076857        -0.635076
 H        -0.454746        -0.614181        -1.106779
 H         2.421363        -0.704860        -2.159567
 H         4.425935         0.472096        -0.208058
 H         4.305124         2.748665        -0.837649
 H         3.815174         2.088517        -2.434258
 H         2.494811         3.935597        -1.139615
 H         1.393782         2.412684        -1.439580
 H         2.381615         1.161428         1.521412
