19
Iteration:  1456
 C         0.029795         0.207524        -0.431455
 C         1.459488         0.228540        -0.138724
 O         2.116974        -1.032918         0.127491
 C         2.485732        -0.210794        -1.051459
 C         3.537526         0.796378        -0.559450
 C         3.584247         2.057629        -1.422701
 C         2.204620         2.736467        -1.113483
 O         2.009045         2.568370         0.367500
 C         2.397989         1.241794         0.534585
 H        -0.730974         0.058147         0.328704
 H        -0.323014         1.093498        -0.963768
 H        -0.216682        -0.610302        -1.161746
 H         2.322387        -0.570493        -2.092212
 H         4.462587         0.265382        -0.370354
 H         4.227452         2.747026        -0.862401
 H         3.775779         2.064810        -2.563426
 H         2.238413         3.832397        -1.403937
 H         1.431880         2.116065        -1.630321
 H         2.642767         1.193904         1.637951
