19
Iteration:  1403
 C        -0.073001         0.169762        -0.218210
 C         1.379728         0.110629        -0.217701
 O         2.211743        -1.156313         0.024625
 C         2.608920        -0.322836        -1.090010
 C         3.446079         0.866712        -0.463036
 C         3.659134         2.024368        -1.378104
 C         2.323161         2.986663        -1.108122
 O         1.954377         2.673419         0.238892
 C         2.245302         1.205815         0.506728
 H        -0.400656        -0.173172         0.738441
 H        -0.378367         1.190655        -0.313250
 H        -0.658307        -0.280586        -1.000184
 H         2.730049        -0.806970        -2.109024
 H         4.368832         0.484226         0.029652
 H         4.648375         2.540078        -1.460473
 H         3.442403         1.601781        -2.469371
 H         2.648862         4.070936        -1.124005
 H         1.597072         2.760819        -1.808351
 H         2.507461         1.289614         1.556494
