19
Iteration:   726
 C        -0.027117         0.149331        -0.216269
 C         1.386805         0.249339        -0.049608
 O         2.111269        -1.082711        -0.074385
 C         2.512161        -0.103505        -1.092942
 C         3.492928         0.789828        -0.496328
 C         3.653355         1.999201        -1.411864
 C         2.371711         2.848417        -1.140436
 O         1.899834         2.511190         0.239715
 C         2.408775         1.247592         0.600676
 H        -0.612881        -0.130352         0.712644
 H        -0.438358         1.218254        -0.446677
 H        -0.388265        -0.541535        -1.029760
 H         2.323532        -0.432161        -2.099626
 H         4.429027         0.257244        -0.367910
 H         4.498662         2.621913        -1.131469
 H         3.806110         1.755469        -2.531283
 H         2.771296         3.878323        -1.183261
 H         1.682667         2.684644        -1.938865
 H         2.400573         1.114987         1.688081
