19
Iteration:  3724
 C        -0.143136         0.169020        -0.108198
 C         1.483128         0.065609        -0.082260
 O         2.216381        -1.092732         0.069226
 C         2.546424        -0.288505        -1.064419
 C         3.486042         0.834316        -0.600967
 C         3.489622         2.171941        -1.456661
 C         2.647830         3.139701        -0.761877
 O         1.722805         2.379616        -0.133737
 C         2.333774         1.227953         0.433312
 H        -0.496231         0.285010         0.902959
 H        -0.363758         1.179264        -0.543693
 H        -0.494746        -0.676045        -0.645079
 H         2.495202        -1.091245        -1.825247
 H         4.372593         0.227832        -0.454166
 H         4.485893         2.496519        -1.771703
 H         3.076356         1.758009        -2.480030
 H         3.285470         3.664167         0.001850
 H         2.134521         3.890287        -1.369310
 H         2.581646         1.274333         1.530104
