19
Iteration:  4523
 C        -0.051603         0.321670        -0.132850
 C         1.457662         0.187878        -0.090386
 O         2.152660        -1.133312        -0.220324
 C         2.524357        -0.127468        -1.125521
 C         3.641751         0.903078        -0.457855
 C         3.628020         2.019603        -1.379767
 C         2.300376         2.755195        -1.098669
 O         1.787289         2.417037         0.233462
 C         2.378840         1.246737         0.616059
 H        -0.560412        -0.000488         0.858244
 H        -0.310892         1.301824        -0.322678
 H        -0.314855        -0.335084        -1.014281
 H         2.419539        -0.484788        -2.167812
 H         4.635150         0.689913        -0.108840
 H         4.412233         2.791449        -1.082129
 H         3.607400         1.809897        -2.458205
 H         2.482253         3.868215        -0.967579
 H         1.661335         2.455654        -1.963587
 H         2.607454         1.120650         1.672686
