19
Iteration:  2256charge 0 multiplicity 1
 C        -0.180880         0.018155        -0.266283
 C         1.435342         0.177928        -0.120657
 O         2.087215        -1.099754        -0.098454
 C         2.573555        -0.136281        -1.015416
 C         3.556547         0.859630        -0.488784
 C         3.642265         2.067116        -1.375063
 C         2.366246         2.850364        -1.097149
 O         2.004480         2.624903         0.260168
 C         2.343671         1.274908         0.533087
 H        -0.695594        -0.074511         0.721738
 H        -0.639789         0.823525        -0.901459
 H        -0.111683        -0.989804        -0.754706
 H         2.437238        -0.311918        -2.051101
 H         4.319979         0.214844        -0.073321
 H         4.441423         2.635709        -1.064533
 H         3.599318         1.798146        -2.411512
 H         2.595310         3.949015        -1.340255
 H         1.454412         2.552107        -1.699063
 H         2.529763         1.110035         1.583421
