19
Iteration:  3429charge 0 multiplicity 1
 C        -0.190510         0.035389        -0.142396
 C         1.368527         0.081541        -0.239398
 O         2.151837        -1.037390         0.032171
 C         2.524430        -0.279661        -1.102062
 C         3.490905         0.852904        -0.534094
 C         3.706036         2.134282        -1.378779
 C         2.397868         2.947169        -1.104120
 O         1.970178         2.608096         0.246443
 C         2.373965         1.280434         0.450790
 H        -0.450316        -0.414880         0.857961
 H        -0.514741         1.065381        -0.187430
 H        -0.708089        -0.711189        -0.870922
 H         2.562848        -0.732958        -2.086070
 H         4.402163         0.357391        -0.218277
 H         4.546366         2.686527        -0.944688
 H         3.804093         1.917026        -2.447468
 H         2.535400         4.035059        -1.128606
 H         1.597933         2.487553        -1.728218
 H         2.454255         1.006233         1.526427
