19
Iteration:   600
 C        -0.072067         0.178736        -0.292986
 C         1.360825         0.128535        -0.037496
 O         2.240515        -1.197333        -0.010243
 C         2.434342        -0.185132        -1.099620
 C         3.363829         0.820933        -0.577628
 C         3.623100         2.005302        -1.454374
 C         2.399427         2.889790        -1.090290
 O         2.062445         2.657916         0.297857
 C         2.291923         1.279197         0.607158
 H        -0.678147        -0.276649         0.440637
 H        -0.260187         1.199328        -0.414864
 H        -0.261350        -0.250713        -1.236721
 H         2.155494        -0.510255        -2.119691
 H         4.426843         0.513318        -0.449007
 H         4.574157         2.491232        -1.151006
 H         3.777113         1.843877        -2.491493
 H         2.740298         3.907560        -1.214101
 H         1.462925         2.604189        -1.623165
 H         2.636012         1.144116         1.640155
