19
Iteration:  4213
 C        -0.092938         0.227830        -0.229765
 C         1.428674         0.054489        -0.123670
 O         2.201640        -1.182075        -0.009755
 C         2.521931        -0.202885        -1.038941
 C         3.472483         0.829136        -0.563004
 C         3.601932         2.125916        -1.430378
 C         2.439122         3.050174        -0.954281
 O         1.808272         2.446403         0.190221
 C         2.403721         1.177141         0.442575
 H        -0.484224        -0.045083         0.718383
 H        -0.298989         1.379609        -0.471008
 H        -0.573479        -0.352474        -1.109657
 H         2.513672        -0.697441        -1.984246
 H         4.445335         0.593283        -0.122479
 H         4.573803         2.554697        -1.066615
 H         3.669040         2.118359        -2.568093
 H         2.503244         4.107403        -0.639834
 H         1.600022         3.152418        -1.748075
 H         2.825191         1.249283         1.503930
