19
Iteration:  1206
 C         0.007699         0.230273        -0.377363
 C         1.482478         0.169481        -0.160004
 O         2.083846        -1.180527         0.106178
 C         2.493400        -0.344020        -1.027882
 C         3.526716         0.855513        -0.581287
 C         3.596983         2.159925        -1.418172
 C         2.301995         2.880134        -1.060841
 O         1.928035         2.666252         0.306003
 C         2.398677         1.191105         0.528151
 H        -0.466310        -0.421830         0.389136
 H        -0.452235         1.203451        -0.173526
 H        -0.240031        -0.336944        -1.340070
 H         2.477540        -0.893721        -1.980881
 H         4.549415         0.495657        -0.420131
 H         4.417328         2.806034        -1.193182
 H         3.685609         1.896733        -2.494358
 H         2.376928         4.004954        -1.356694
 H         1.456554         2.403165        -1.734498
 H         2.544062         0.810930         1.520832
