19
Iteration:   221
 C        -0.254836         0.103524        -0.114029
 C         1.358524         0.205439        -0.228726
 O         2.239392        -1.013913        -0.021022
 C         2.466565        -0.224706        -1.144894
 C         3.408330         0.818984        -0.592971
 C         3.741612         2.043396        -1.429420
 C         2.443479         2.817900        -1.056452
 O         2.018730         2.597661         0.328214
 C         2.325606         1.267499         0.490645
 H        -0.702057        -0.356900         0.779515
 H        -0.596494         1.171036        -0.143393
 H        -0.658126        -0.390643        -1.009719
 H         2.531216        -0.962408        -2.092097
 H         4.226309         0.343455        -0.089901
 H         4.693712         2.509066        -1.025368
 H         3.954726         1.753405        -2.434949
 H         2.666261         3.940322        -1.135011
 H         1.624796         2.629233        -1.780708
 H         2.497120         1.091145         1.558019
