19
Iteration:  3940
 C        -0.039444        -0.138451        -0.131983
 C         1.421825         0.166462        -0.115071
 O         2.167634        -1.043235         0.049456
 C         2.449524        -0.242540        -1.123234
 C         3.390111         0.821587        -0.572792
 C         3.600755         2.093149        -1.406153
 C         2.653632         3.109987        -0.923050
 O         1.933510         2.593622         0.112396
 C         2.228988         1.280590         0.373337
 H        -0.252935        -0.529630         0.839646
 H        -0.700740         0.786223        -0.150491
 H        -0.510467        -0.963123        -0.832901
 H         2.336664        -0.785461        -2.131531
 H         4.183737         0.343716         0.027927
 H         4.560253         2.446665        -1.591918
 H         3.252574         1.759536        -2.356443
 H         2.988518         4.065734        -0.578219
 H         1.979169         3.289545        -1.873786
 H         2.317255         1.143996         1.473170
