19
Iteration:   640charge 0 multiplicity 1
 C        -0.170459         0.132300        -0.250409
 C         1.414981         0.219756        -0.206174
 O         2.001966        -1.071843         0.030455
 C         2.564791        -0.229485        -1.077360
 C         3.575337         0.882334        -0.592096
 C         3.635937         2.081679        -1.478708
 C         2.420874         2.837862        -1.051413
 O         1.990156         2.551491         0.338178
 C         2.409547         1.220412         0.531729
 H        -0.523840         0.152385         0.844891
 H        -0.700976         0.988716        -0.790319
 H        -0.283376        -0.923760        -0.625315
 H         2.596240        -0.697455        -2.091116
 H         4.496461         0.427947        -0.195795
 H         4.557699         2.597220        -1.167634
 H         3.618807         1.873688        -2.601634
 H         2.403434         3.920959        -1.023466
 H         1.551099         2.601164        -1.731943
 H         2.433851         1.094838         1.612346
