19
Iteration:  1074charge 0 multiplicity 1
 C        -0.056342         0.192366        -0.064732
 C         1.410549         0.196724        -0.261908
 O         2.120446        -1.051918        -0.059129
 C         2.536613        -0.205963        -1.113447
 C         3.516311         0.863398        -0.472729
 C         3.703404         2.078111        -1.270034
 C         2.336278         2.836122        -1.136572
 O         1.894089         2.513812         0.151565
 C         2.321277         1.174165         0.471828
 H        -0.014704         0.182243         1.064018
 H        -0.635898         1.074422        -0.515137
 H        -0.458143        -0.800990        -0.509830
 H         2.669998        -0.583943        -2.210304
 H         4.325090         0.507689         0.186913
 H         4.468956         2.709254        -0.860850
 H         4.063141         1.892599        -2.326505
 H         2.324901         3.972710        -1.196626
 H         1.631649         2.556724        -1.877460
 H         2.406671         0.925206         1.561154
