19
Iteration:  1292
 C        -0.119384         0.042953        -0.057016
 C         1.402547         0.223587        -0.239896
 O         2.081194        -1.030034        -0.052292
 C         2.551327        -0.189092        -1.128338
 C         3.552501         0.842887        -0.461054
 C         3.700516         2.111519        -1.279181
 C         2.350826         2.891266        -1.237545
 O         1.986643         2.505109         0.165522
 C         2.290160         1.219882         0.518024
 H        -0.195872         0.054281         0.998710
 H        -0.660473         0.857264        -0.486169
 H        -0.488839        -0.925325        -0.406549
 H         2.555121        -0.495859        -2.136002
 H         4.473722         0.462101        -0.081700
 H         4.311560         2.720842        -0.618660
 H         4.125946         1.910342        -2.352589
 H         2.323394         4.002597        -1.227874
 H         1.611121         2.455596        -1.909888
 H         2.351766         1.088596         1.651845
