19
Iteration:  1816
 C        -0.032611         0.015558        -0.215065
 C         1.409653         0.222684        -0.197018
 O         2.090107        -1.066299         0.006374
 C         2.568827        -0.211145        -1.159470
 C         3.445229         0.789904        -0.420549
 C         3.627738         2.053234        -1.394514
 C         2.380788         2.942819        -1.078836
 O         1.988390         2.641271         0.258468
 C         2.264143         1.233131         0.517960
 H        -0.466185        -0.071063         0.738079
 H        -0.574222         0.794437        -0.680094
 H         0.018845        -0.816076        -0.850867
 H         2.806001        -0.679744        -2.132134
 H         4.394030         0.574064        -0.006916
 H         4.665460         2.468689        -1.334735
 H         3.543959         1.733706        -2.529257
 H         2.709674         3.954961        -1.207930
 H         1.652371         2.650126        -1.857016
 H         2.259568         1.089308         1.629987
