19
Iteration:  4511
 C        -0.047392         0.275100        -0.214058
 C         1.489681         0.171546        -0.102504
 O         2.139490        -1.129351        -0.168577
 C         2.586291        -0.146914        -1.078266
 C         3.556477         0.801442        -0.447689
 C         3.591447         2.127699        -1.403317
 C         2.257343         2.829068        -1.061266
 O         1.880147         2.477209         0.217309
 C         2.413103         1.166940         0.606440
 H        -0.494194         0.039393         0.786249
 H        -0.313407         1.297454        -0.406382
 H        -0.613105        -0.348985        -0.908079
 H         2.517453        -0.193963        -2.137421
 H         4.441133         0.349138        -0.079898
 H         4.586527         2.673186        -1.381480
 H         3.577596         1.717519        -2.432123
 H         2.251432         3.941505        -1.207357
 H         1.390463         2.474373        -1.688752
 H         2.417082         1.224485         1.713471
