19
Iteration:  3119charge 0 multiplicity 1
 C        -0.128707         0.094330        -0.177615
 C         1.386524         0.091736        -0.180821
 O         2.179214        -1.143300        -0.001229
 C         2.504171        -0.190294        -1.069436
 C         3.459056         0.896862        -0.532723
 C         3.630524         2.099703        -1.355523
 C         2.366577         2.937564        -1.154831
 O         1.976468         2.602426         0.202461
 C         2.384599         1.200717         0.513199
 H        -0.374253        -0.506341         0.728693
 H        -0.551367         1.117727         0.039330
 H        -0.561298        -0.470473        -0.967075
 H         2.710055        -0.734694        -1.974804
 H         4.353039         0.664766        -0.005814
 H         4.516353         2.547754        -0.894741
 H         3.742692         1.901155        -2.518633
 H         2.666927         3.999219        -1.251091
 H         1.588802         2.813662        -1.886126
 H         2.420511         1.198400         1.631301
