19
Iteration:  4397
 C        -0.036472         0.069101        -0.270266
 C         1.429374         0.081355        -0.138254
 O         2.134734        -1.137950        -0.080223
 C         2.622944        -0.179899        -1.068904
 C         3.482341         0.865510        -0.532587
 C         3.491479         2.013274        -1.505250
 C         2.510050         3.113535        -0.910839
 O         1.939009         2.539021         0.293826
 C         2.239115         1.209745         0.514295
 H        -0.401132         0.014723         0.747545
 H        -0.321786         1.098793        -0.575184
 H        -0.641011        -0.753944        -0.742253
 H         2.728889        -0.689436        -2.080688
 H         4.547733         0.614664        -0.167326
 H         4.504250         2.415215        -1.675379
 H         3.159490         1.703853        -2.553531
 H         2.825449         4.190796        -0.804896
 H         1.638725         3.166698        -1.674669
 H         2.149882         1.190806         1.683589
