19
Iteration:  3376charge 0 multiplicity 1
 C        -0.011838         0.373762        -0.187029
 C         1.497734         0.116762         0.024837
 O         2.138561        -1.103004        -0.163964
 C         2.515494        -0.094434        -1.085002
 C         3.531680         0.852920        -0.467220
 C         3.637351         2.097106        -1.337737
 C         2.248540         2.670015        -1.182815
 O         1.844188         2.483528         0.191109
 C         2.441959         1.200948         0.539539
 H        -0.677915         0.202387         0.677342
 H        -0.310126         1.340620        -0.486105
 H        -0.265412        -0.548314        -0.747842
 H         2.533642        -0.394598        -2.121071
 H         4.447287         0.403464         0.061814
 H         4.417411         2.861792        -0.779449
 H         3.941445         1.983637        -2.430563
 H         2.077500         3.740751        -1.452100
 H         1.566865         2.085540        -1.822401
 H         2.449365         1.073293         1.638916
