19
Iteration:  3598
 C        -0.089188        -0.091215        -0.253458
 C         1.399774         0.011163        -0.054935
 O         2.232703        -1.065919         0.184369
 C         2.485338        -0.221591        -0.978269
 C         3.374604         0.887019        -0.656939
 C         3.389101         2.030750        -1.646982
 C         2.892047         3.214383        -0.731847
 O         1.777248         2.536085        -0.020617
 C         2.249781         1.251505         0.470828
 H        -0.619934        -0.409381         0.624261
 H        -0.308667         0.888290        -0.687368
 H        -0.227361        -0.673120        -1.105598
 H         2.528531        -0.769041        -1.976237
 H         4.421467         0.682572        -0.283606
 H         4.406488         2.466945        -1.967871
 H         2.737346         1.801951        -2.477011
 H         3.702143         3.730613        -0.113720
 H         2.372384         4.010692        -1.270974
 H         2.636059         1.205546         1.489259
