19
Iteration:  1235
 C         0.003807         0.298371        -0.326340
 C         1.431454         0.106058         0.014097
 O         2.196925        -1.074940         0.023903
 C         2.454602        -0.148743        -1.079256
 C         3.470796         0.908100        -0.518069
 C         3.564369         2.042128        -1.350708
 C         2.268486         2.808779        -1.124400
 O         1.923479         2.478788         0.194804
 C         2.445590         1.164315         0.532445
 H        -0.811746        -0.097100         0.254179
 H        -0.345823         1.333001        -0.458991
 H        -0.189278        -0.094146        -1.304250
 H         2.652305        -0.689895        -2.073650
 H         4.441982         0.476324        -0.301435
 H         4.300679         2.811371        -0.984084
 H         3.993737         1.747689        -2.387080
 H         2.387589         3.858077        -1.211253
 H         1.441325         2.538229        -1.772798
 H         2.767418         0.948439         1.605650
