19
Iteration:  4108
 C        -0.076675         0.038046        -0.454703
 C         1.413254         0.135216        -0.137688
 O         2.192057        -1.043388         0.137395
 C         2.501162        -0.325573        -1.091153
 C         3.410832         0.770348        -0.599360
 C         3.525327         2.156483        -1.436379
 C         2.330025         3.041353        -1.004429
 O         2.113446         2.582401         0.386558
 C         2.368041         1.198598         0.457917
 H        -0.726620         0.195406         0.532796
 H        -0.289898         0.906253        -1.116658
 H        -0.341676        -0.939246        -0.819390
 H         2.291509        -0.901760        -2.030432
 H         4.411438         0.434156        -0.262723
 H         4.517452         2.669669        -1.321342
 H         3.519159         1.948738        -2.514504
 H         2.498855         4.193631        -0.919036
 H         1.301969         3.075197        -1.607137
 H         2.509502         1.065046         1.507510
