19
Iteration:  4987charge 0 multiplicity 1
 C        -0.100406         0.155739        -0.238622
 C         1.463640         0.101621        -0.223238
 O         2.052421        -1.109657         0.013924
 C         2.545171        -0.246382        -1.187602
 C         3.532537         0.820657        -0.598446
 C         3.629082         2.227914        -1.315378
 C         2.183136         2.867341        -1.060349
 O         2.137481         2.582602         0.320097
 C         2.384589         1.198791         0.490975
 H        -0.316586        -0.018464         0.819973
 H        -0.623587         1.164277        -0.553695
 H        -0.628829        -0.729971        -0.766106
 H         2.256838        -0.935188        -2.006444
 H         4.523973         0.504382        -0.187505
 H         4.326694         2.840745        -0.788898
 H         3.824316         2.085506        -2.439511
 H         2.279253         3.909751        -1.260234
 H         1.362438         2.401657        -1.533532
 H         2.546655         1.147927         1.593449
