19
Iteration:  4278charge 0 multiplicity 1
 C        -0.145972         0.022009        -0.072859
 C         1.365857         0.171614        -0.199633
 O         2.147345        -1.103163        -0.200774
 C         2.495923        -0.116716        -1.159852
 C         3.494490         0.886812        -0.448162
 C         3.744294         2.233514        -1.331977
 C         2.350588         2.748053        -1.141133
 O         2.088334         2.621333         0.267709
 C         2.228877         1.202628         0.566958
 H        -0.340174        -0.197872         0.955872
 H        -0.655824         1.085254        -0.356726
 H        -0.559282        -0.938295        -0.585644
 H         2.459606        -0.512858        -2.201330
 H         4.373513         0.392545         0.024194
 H         4.587898         2.776378        -0.802776
 H         4.002075         2.081615        -2.460071
 H         2.190375         3.778579        -1.528666
 H         1.813605         1.997079        -1.761225
 H         2.188336         0.925410         1.710404
