19
Iteration:   758charge 0 multiplicity 1
 C        -0.162652         0.110695        -0.110107
 C         1.439094         0.099265        -0.250886
 O         2.099911        -1.173645        -0.026462
 C         2.511320        -0.231083        -1.071942
 C         3.444171         0.819197        -0.482493
 C         3.715730         2.154950        -1.324469
 C         2.382375         2.879352        -1.176297
 O         2.071332         2.665279         0.248554
 C         2.291317         1.263373         0.451136
 H        -0.463567        -0.485698         0.750786
 H        -0.274220         1.176019         0.255256
 H        -0.840586        -0.112394        -0.961204
 H         2.580276        -0.688965        -2.028945
 H         4.387217         0.361101        -0.262455
 H         4.517061         2.719138        -0.876967
 H         3.871996         1.945906        -2.441846
 H         2.546969         3.969218        -1.470847
 H         1.502030         2.507594        -1.828979
 H         2.215533         1.038749         1.522214
