19
Iteration:  1548
 C        -0.101822         0.013282        -0.215819
 C         1.363167         0.057586        -0.014748
 O         2.241603        -1.126544         0.067649
 C         2.429239        -0.265237        -1.077351
 C         3.376425         0.816295        -0.573388
 C         3.679017         2.144378        -1.410134
 C         2.595241         3.056684        -1.050216
 O         1.854627         2.563242         0.044255
 C         2.290093         1.318276         0.546707
 H        -0.797595        -0.250532         0.638240
 H        -0.389670         1.021618        -0.565267
 H        -0.335988        -0.747707        -0.965666
 H         2.430809        -0.817391        -2.040522
 H         4.405877         0.418978        -0.282485
 H         4.626922         2.542487        -0.910334
 H         3.806201         2.005247        -2.610158
 H         3.044027         4.031885        -0.747066
 H         1.809229         3.240827        -1.737834
 H         2.514380         1.314903         1.600125
