19
Iteration:  3726
 C        -0.137629         0.160534        -0.113682
 C         1.467217         0.071870        -0.103477
 O         2.216842        -1.103153         0.085057
 C         2.543357        -0.273311        -1.078541
 C         3.469194         0.840410        -0.591164
 C         3.507476         2.162775        -1.452575
 C         2.648308         3.138253        -0.785475
 O         1.720755         2.391928        -0.116178
 C         2.337848         1.212853         0.424680
 H        -0.483916         0.284098         1.002347
 H        -0.327885         1.211062        -0.521649
 H        -0.478996        -0.665521        -0.624596
 H         2.561329        -1.102772        -1.839715
 H         4.432711         0.270292        -0.446888
 H         4.493510         2.530657        -1.847254
 H         3.045619         1.782225        -2.398218
 H         3.262029         3.630453        -0.005440
 H         2.128362         3.873365        -1.364171
 H         2.563688         1.243494         1.566286
