19
Iteration:  1323
 C        -0.122824        -0.043141        -0.163933
 C         1.410377         0.087819        -0.052718
 O         2.248352        -1.091572         0.008612
 C         2.327757        -0.201689        -1.175435
 C         3.366231         0.840521        -0.570412
 C         3.766836         2.081765        -1.277563
 C         2.545455         3.007758        -1.222482
 O         1.876676         2.615940         0.218288
 C         2.300729         1.279444         0.509945
 H        -0.494694         0.088018         0.861977
 H        -0.307407         0.939102        -0.619442
 H        -0.416629        -0.984405        -0.666652
 H         2.178102        -0.491086        -2.205599
 H         4.252804         0.395137        -0.168777
 H         4.641403         2.466973        -0.719878
 H         4.241650         1.947089        -2.343339
 H         2.487580         4.058965        -1.388284
 H         1.873795         2.585564        -1.897226
 H         2.638969         1.421316         1.579468
