19
Iteration:  4051
 C         0.063457         0.344824        -0.164151
 C         1.504738         0.125130        -0.171281
 O         2.128099        -1.222471        -0.136662
 C         2.572312        -0.079943        -1.112741
 C         3.466786         0.852122        -0.416581
 C         3.538794         2.091375        -1.323374
 C         2.206143         2.697816        -1.116842
 O         1.933165         2.532701         0.222896
 C         2.384155         1.213617         0.532724
 H        -0.167232         0.438499         0.887250
 H        -0.173414         1.425504        -0.561491
 H        -0.476808        -0.423195        -0.711925
 H         2.599543        -0.417365        -2.072550
 H         4.484662         0.555113        -0.150485
 H         4.150320         2.845066        -0.918262
 H         3.707346         1.924280        -2.357670
 H         2.385239         3.778497        -1.294790
 H         1.514059         2.236294        -1.908647
 H         2.394032         1.169657         1.604542
