19
Iteration:  4838
 C        -0.065283        -0.107019        -0.020384
 C         1.466121         0.100906        -0.096954
 O         2.167626        -1.142203        -0.045746
 C         2.449966        -0.236176        -1.122898
 C         3.364302         0.845112        -0.514684
 C         3.515218         2.122104        -1.507557
 C         2.821778         3.205586        -0.647886
 O         1.768218         2.483354        -0.184243
 C         2.280635         1.323538         0.449049
 H        -0.669764         0.001370         0.954705
 H        -0.472962         0.678246        -0.691256
 H        -0.339622        -1.115083        -0.485777
 H         2.408036        -0.743279        -2.103243
 H         4.245908         0.520969         0.031923
 H         4.540439         2.276615        -1.797249
 H         3.063605         2.014328        -2.480035
 H         3.283512         3.667885         0.169393
 H         2.478115         4.141629        -1.201293
 H         2.723175         1.490289         1.433233
