19
Iteration:   674
 C        -0.067565         0.274285        -0.239312
 C         1.413022         0.098743        -0.223086
 O         2.182432        -1.195109         0.119001
 C         2.519139        -0.267414        -1.209357
 C         3.460126         0.786688        -0.557339
 C         3.589499         2.070556        -1.295037
 C         2.287164         2.955142        -1.070001
 O         2.046967         2.630509         0.278697
 C         2.340420         1.229994         0.418630
 H        -0.210558         0.603809         0.864565
 H        -0.400177         1.040831        -0.998002
 H        -0.741767        -0.608282        -0.483774
 H         2.284427        -0.841189        -2.109455
 H         4.438850         0.335684        -0.278093
 H         4.481401         2.570192        -0.848061
 H         3.891737         2.046475        -2.380326
 H         2.586642         3.984511        -1.159071
 H         1.436704         2.527440        -1.702631
 H         2.300230         1.041257         1.472053
