19
Iteration:  3705
 C        -0.015007         0.122227        -0.140857
 C         1.445329         0.104332        -0.013907
 O         2.222487        -1.188543         0.115823
 C         2.437911        -0.252080        -1.044015
 C         3.392598         0.856964        -0.646964
 C         3.594727         2.109602        -1.529518
 C         2.710391         3.166462        -0.731051
 O         1.632243         2.374565        -0.137361
 C         2.347285         1.234156         0.400851
 H        -0.518731         0.287333         0.952337
 H        -0.207632         1.121454        -0.680611
 H        -0.249041        -0.799873        -0.605734
 H         2.225114        -0.518793        -2.129987
 H         4.447820         0.781281        -0.215952
 H         4.665618         2.442239        -1.763292
 H         3.153057         2.123736        -2.515373
 H         3.227350         3.548011         0.150085
 H         2.225936         3.961015        -1.273395
 H         2.619280         1.404996         1.512781
