19
Iteration:  3436
 C        -0.199486         0.009064        -0.159769
 C         1.376301         0.122180        -0.244624
 O         2.185701        -1.057137         0.066436
 C         2.530295        -0.265511        -1.117822
 C         3.448477         0.789247        -0.549849
 C         3.668053         2.159857        -1.415929
 C         2.435035         2.968082        -1.061178
 O         1.988043         2.605010         0.228913
 C         2.362155         1.275675         0.476954
 H        -0.197644        -0.398063         0.841026
 H        -0.770656         0.987142        -0.190680
 H        -0.750675        -0.603365        -0.921942
 H         2.517610        -0.971651        -2.005663
 H         4.377520         0.445936        -0.110164
 H         4.529528         2.608883        -1.014889
 H         3.905024         1.964305        -2.467728
 H         2.565653         4.045595        -1.096228
 H         1.606490         2.825460        -1.809884
 H         2.226383         1.076452         1.547267
