19
Iteration:  4842
 C        -0.083667        -0.094399        -0.012597
 C         1.491644         0.091602        -0.081509
 O         2.154092        -1.172099        -0.038322
 C         2.487855        -0.220729        -1.162156
 C         3.340542         0.892977        -0.528743
 C         3.538074         2.126053        -1.478329
 C         2.822220         3.201719        -0.675159
 O         1.757732         2.470266        -0.192778
 C         2.267122         1.303841         0.454758
 H        -0.652246         0.031649         1.028587
 H        -0.345491         0.718438        -0.648371
 H        -0.424924        -1.008249        -0.451933
 H         2.366421        -0.738754        -2.073092
 H         4.206924         0.516801         0.021908
 H         4.640363         2.227796        -1.729224
 H         2.964672         2.155706        -2.416921
 H         3.355055         3.744180         0.179103
 H         2.391926         3.944502        -1.286528
 H         2.768960         1.462995         1.491693
