19
Iteration:  2800
 C        -0.130637        -0.148347        -0.177327
 C         1.375326         0.122488        -0.171021
 O         2.227113        -1.115892         0.117684
 C         2.495200        -0.282456        -1.032664
 C         3.430002         0.902124        -0.515284
 C         3.478053         2.120969        -1.548234
 C         2.881033         3.202960        -0.753901
 O         1.771340         2.573523        -0.015627
 C         2.200354         1.260354         0.332313
 H        -0.365411         0.111245         0.857439
 H        -0.720460         0.486566        -0.731615
 H        -0.369087        -1.206788        -0.438356
 H         2.566144        -0.814031        -2.038297
 H         4.379104         0.673714        -0.106966
 H         4.545036         2.159488        -1.894614
 H         2.933456         1.677128        -2.397836
 H         3.597002         3.556873         0.012702
 H         2.501352         4.095124        -1.273953
 H         2.431676         1.249867         1.394908
