19
Iteration:   152
 C        -0.064651         0.307653        -0.147490
 C         1.412463         0.093392        -0.180979
 O         2.141533        -1.090873         0.032515
 C         2.485450        -0.149416        -1.155556
 C         3.535721         0.761049        -0.537036
 C         3.671448         2.076598        -1.381638
 C         2.340843         2.818698        -1.075587
 O         1.989127         2.521874         0.200622
 C         2.248701         1.194026         0.502090
 H        -0.280915         0.234789         0.950392
 H        -0.165451         1.357667        -0.440646
 H        -0.597144        -0.437261        -0.752793
 H         2.556910        -0.427851        -2.201725
 H         4.404908         0.186511        -0.298972
 H         4.430290         2.782570        -1.030544
 H         3.871090         1.953032        -2.466334
 H         2.619541         3.876857        -0.963946
 H         1.495849         2.785007        -1.832836
 H         2.249096         1.007293         1.651832
