19
Iteration:  4876
 C        -0.111975         0.063088         0.022522
 C         1.372591         0.157130        -0.150839
 O         2.297818        -1.110000        -0.003774
 C         2.509163        -0.311203        -1.206338
 C         3.394001         0.820330        -0.609084
 C         3.685954         2.122776        -1.426343
 C         2.646072         3.117756        -0.763033
 O         1.673029         2.446301        -0.045084
 C         2.281653         1.256463         0.403487
 H        -0.380153         0.069611         1.146148
 H        -0.477080         1.095717        -0.309534
 H        -0.602116        -0.631264        -0.624298
 H         2.416871        -0.782900        -2.225996
 H         4.243980         0.347914        -0.061518
 H         4.720325         2.479066        -1.173132
 H         3.504991         2.048787        -2.546425
 H         3.394536         3.745414        -0.168484
 H         2.073627         3.728055        -1.432673
 H         2.468521         1.239763         1.548402
