19
Iteration:  4019charge 0 multiplicity 1
 C        -0.126609         0.229259        -0.103142
 C         1.433201         0.186414        -0.063994
 O         2.206948        -1.100970        -0.102260
 C         2.431369        -0.136921        -1.130811
 C         3.547799         0.821710        -0.533122
 C         3.693781         2.164949        -1.253662
 C         2.286420         2.698699        -1.113222
 O         1.876750         2.524305         0.173870
 C         2.470397         1.227575         0.476839
 H        -0.681554        -0.406192         0.663310
 H        -0.612864         1.283972        -0.290761
 H        -0.402656        -0.326267        -1.012686
 H         2.401203        -0.454094        -2.108598
 H         4.449300         0.260383        -0.240045
 H         4.431693         2.803367        -0.764834
 H         3.919759         2.096499        -2.317581
 H         2.197101         3.792263        -1.316760
 H         1.714111         2.164075        -1.999533
 H         2.645872         1.157584         1.526299
