19
Iteration:  3591
 C        -0.031347        -0.011007        -0.284811
 C         1.409333         0.078074        -0.015753
 O         2.244438        -1.085878         0.188457
 C         2.483679        -0.240799        -1.022859
 C         3.358210         0.884429        -0.639087
 C         3.377351         2.031141        -1.620260
 C         2.852313         3.156539        -0.728869
 O         1.733796         2.503362        -0.010814
 C         2.317404         1.299336         0.435775
 H        -0.666780        -0.328467         0.529443
 H        -0.444570         0.930291        -0.645265
 H        -0.265221        -0.839170        -1.089097
 H         2.668518        -0.858092        -1.878040
 H         4.341710         0.794322        -0.241663
 H         4.398051         2.125300        -1.973043
 H         2.664996         2.013129        -2.545637
 H         3.538121         3.543188         0.008032
 H         2.364589         3.961163        -1.308410
 H         2.772130         1.050965         1.443398
