19
Iteration:  2224
 C        -0.016890         0.228546        -0.199132
 C         1.418379         0.106374        -0.137315
 O         2.199001        -1.140249         0.042963
 C         2.523255        -0.235988        -1.117678
 C         3.397404         0.836968        -0.629840
 C         3.701556         2.177782        -1.260964
 C         2.383416         2.863194        -1.091376
 O         1.887546         2.565567         0.216093
 C         2.292509         1.202307         0.422238
 H        -0.400415         0.163043         0.859181
 H        -0.367881         1.117387        -0.808453
 H        -0.445195        -0.731586        -0.714700
 H         2.193516        -0.633601        -2.030799
 H         4.299229         0.354614        -0.135902
 H         4.458514         2.713838        -0.733913
 H         4.059364         2.105228        -2.256556
 H         2.544233         3.988509        -1.073950
 H         1.616385         2.574234        -1.858919
 H         2.496654         0.837419         1.408282
