19
Iteration:  3149
 C         0.013721         0.168407        -0.196562
 C         1.452997         0.197700        -0.205972
 O         2.106753        -1.073925        -0.068754
 C         2.492301        -0.112478        -1.092642
 C         3.571522         0.844004        -0.494786
 C         3.717398         2.047881        -1.352906
 C         2.160351         2.714941        -1.116456
 O         1.961913         2.596647         0.225090
 C         2.371752         1.210337         0.555166
 H        -0.162159        -0.236282         0.870046
 H        -0.477049         1.165859        -0.174118
 H        -0.580446        -0.441454        -0.973084
 H         2.474520        -0.496077        -2.119016
 H         4.332869         0.411985         0.218402
 H         4.470682         2.698119        -0.892461
 H         3.821907         1.879507        -2.396571
 H         2.135980         3.814751        -1.413226
 H         1.466100         2.092325        -1.799626
 H         2.297613         1.345831         1.654751
