19
Iteration:  4080charge 0 multiplicity 1
 C        -0.046569         0.249676        -0.293074
 C         1.460570         0.158994        -0.194620
 O         2.108181        -1.106779        -0.001020
 C         2.648902        -0.245236        -1.082994
 C         3.489776         0.844161        -0.530047
 C         3.592119         2.120386        -1.479525
 C         2.264075         2.838393        -1.062974
 O         1.914899         2.512045         0.378106
 C         2.386165         1.195654         0.534517
 H        -0.316268         0.527179         0.720907
 H        -0.360934         1.101129        -0.845760
 H        -0.490470        -0.745575        -0.617342
 H         2.566558        -0.774610        -2.086360
 H         4.503612         0.581565        -0.228413
 H         4.415503         2.826037        -1.226659
 H         3.617098         1.948838        -2.587907
 H         2.384585         3.891167        -1.050061
 H         1.495798         2.635906        -1.821832
 H         2.509454         1.020169         1.652026
