19
Iteration:  2546
 C        -0.047792        -0.031519        -0.283087
 C         1.402969         0.093222        -0.120551
 O         2.211960        -1.080584         0.224610
 C         2.502677        -0.348117        -1.024012
 C         3.419837         0.808292        -0.660788
 C         3.497620         2.094695        -1.491649
 C         2.774736         3.239423        -0.811944
 O         1.735017         2.586190         0.000673
 C         2.249321         1.220400         0.450087
 H        -0.523427        -0.462640         0.657015
 H        -0.658057         0.937393        -0.525215
 H        -0.115415        -0.652145        -1.172552
 H         2.648297        -0.826475        -1.970766
 H         4.393878         0.535672        -0.187446
 H         4.546223         2.187995        -1.950495
 H         3.020775         1.874256        -2.402223
 H         3.517362         3.835882        -0.295896
 H         2.152690         3.916676        -1.373298
 H         2.499009         1.092887         1.551812
