19
Iteration:  1301
 C        -0.126724         0.024619        -0.061564
 C         1.369443         0.203311        -0.188553
 O         2.132752        -1.051487        -0.041067
 C         2.491542        -0.168849        -1.116676
 C         3.511817         0.843818        -0.524851
 C         3.768646         2.152163        -1.269048
 C         2.367633         2.825132        -1.132668
 O         1.962228         2.552979         0.146468
 C         2.280281         1.218819         0.452630
 H        -0.404270         0.068253         1.021576
 H        -0.689692         0.866625        -0.547935
 H        -0.296654        -0.976041        -0.484059
 H         2.484340        -0.616173        -2.131800
 H         4.444097         0.451959        -0.173640
 H         4.615707         2.727998        -0.830347
 H         4.236082         1.920696        -2.320768
 H         2.441131         3.887316        -1.221231
 H         1.685487         2.536503        -1.871989
 H         2.245077         1.368148         1.587980
