19
Iteration:  2803charge 0 multiplicity 1
 C        -0.135823        -0.151818        -0.186030
 C         1.369603         0.125625        -0.167185
 O         2.235222        -1.119309         0.116254
 C         2.513628        -0.296757        -1.039092
 C         3.419045         0.929485        -0.524431
 C         3.472408         2.092676        -1.524306
 C         2.909162         3.205878        -0.768529
 O         1.758180         2.557844        -0.011011
 C         2.207592         1.267310         0.333055
 H        -0.367108         0.141160         0.891410
 H        -0.821325         0.539759        -0.792205
 H        -0.461384        -1.219816        -0.372669
 H         2.561039        -0.875971        -1.997232
 H         4.396811         0.708600        -0.145929
 H         4.457637         2.202204        -1.863255
 H         2.883033         1.866553        -2.395845
 H         3.660333         3.533628         0.052327
 H         2.490425         4.167294        -1.318425
 H         2.466307         1.296738         1.398580
