19
Iteration:  4449charge 0 multiplicity 1
 C        -0.095994        -0.023584        -0.395590
 C         1.371949         0.156522        -0.158487
 O         2.113562        -0.985360         0.139615
 C         2.533979        -0.229983        -1.139745
 C         3.407100         0.888384        -0.631305
 C         3.587916         2.162908        -1.501784
 C         2.376895         2.926747        -0.913341
 O         2.115105         2.527175         0.398450
 C         2.373226         1.180769         0.455329
 H        -0.720087        -0.207394         0.607319
 H        -0.449595         0.812865        -0.897684
 H        -0.276318        -1.007965        -0.976947
 H         2.310594        -0.762197        -2.062175
 H         4.372735         0.423622        -0.298003
 H         4.380346         2.776287        -1.160241
 H         3.623049         2.053785        -2.569257
 H         2.643845         3.978857        -1.009553
 H         1.520803         2.930697        -1.651076
 H         2.515664         1.040521         1.470612
