19
Iteration:   262charge 0 multiplicity 1
 C        -0.033147         0.192742        -0.157350
 C         1.425151         0.200609        -0.136817
 O         2.014233        -1.137710        -0.043426
 C         2.446941        -0.319233        -1.101730
 C         3.472214         0.877263        -0.559267
 C         3.672849         2.024030        -1.386339
 C         2.352004         2.972140        -1.094419
 O         2.026951         2.545111         0.230774
 C         2.405141         1.206039         0.489343
 H        -0.492815         0.017229         0.845907
 H        -0.529740         1.117180        -0.477648
 H        -0.379480        -0.604937        -0.823684
 H         2.568665        -0.723187        -2.169462
 H         4.402095         0.651072        -0.130132
 H         4.323270         2.697262        -0.780194
 H         3.965948         2.045679        -2.398894
 H         2.547201         4.065872        -0.943415
 H         1.478323         2.774720        -1.697384
 H         2.796190         1.037589         1.563226
