19
Iteration:  2306charge 0 multiplicity 1
 C        -0.100930         0.145578        -0.366985
 C         1.452233         0.165711        -0.224815
 O         2.157647        -1.085567         0.110374
 C         2.508061        -0.321624        -1.057578
 C         3.461853         0.839404        -0.560377
 C         3.579278         2.127019        -1.391576
 C         2.319510         2.903898        -1.093269
 O         1.978371         2.586143         0.297756
 C         2.400968         1.238879         0.504088
 H        -0.424187        -0.233774         0.602905
 H        -0.469681         1.192216        -0.377609
 H        -0.416017        -0.456373        -1.168924
 H         2.462664        -0.885789        -2.069507
 H         4.507477         0.581898        -0.132939
 H         4.441546         2.616415        -0.764254
 H         3.995332         1.924865        -2.449728
 H         2.458114         3.967871        -1.048801
 H         1.488804         2.711213        -1.736279
 H         2.562322         0.833052         1.535643
