19
Iteration:   232
 C        -0.221280         0.120780        -0.101331
 C         1.308106         0.160264        -0.290105
 O         2.153046        -1.049280         0.033288
 C         2.526667        -0.267429        -1.124903
 C         3.549892         0.775752        -0.640288
 C         3.743436         2.032888        -1.380666
 C         2.416675         2.900496        -1.027957
 O         2.030225         2.666501         0.319306
 C         2.270411         1.241201         0.422090
 H        -0.301403        -0.322739         0.893506
 H        -0.544813         1.193997        -0.070111
 H        -0.795395        -0.433127        -0.868141
 H         2.520838        -0.792819        -2.230166
 H         4.466942         0.370995        -0.232830
 H         4.630929         2.595056        -0.950863
 H         3.782844         2.056228        -2.452702
 H         2.438770         4.032387        -1.206762
 H         1.610989         2.393708        -1.627828
 H         2.369153         0.913967         1.453671
