19
Iteration:  2325charge 0 multiplicity 1
 C        -0.053129         0.250020        -0.296645
 C         1.437155         0.084005        -0.126906
 O         2.110572        -1.101007         0.161892
 C         2.551054        -0.296764        -1.078408
 C         3.520383         0.767833        -0.609684
 C         3.679725         2.231590        -1.380066
 C         2.322093         2.938938        -1.049612
 O         1.924017         2.487431         0.240607
 C         2.306385         1.185032         0.426017
 H        -0.720870        -0.226994         0.432447
 H        -0.190083         1.311093        -0.389303
 H        -0.192895        -0.257775        -1.312231
 H         2.613692        -0.799113        -2.060303
 H         4.534435         0.632678        -0.253883
 H         4.540071         2.798984        -1.083641
 H         3.526446         2.129657        -2.371685
 H         2.285834         4.012305        -1.064736
 H         1.578904         2.563650        -1.804080
 H         2.540536         1.162790         1.491117
