19
Iteration:   761charge 0 multiplicity 1
 C        -0.171446         0.104731        -0.096778
 C         1.412261         0.103585        -0.258688
 O         2.092089        -1.149629        -0.021401
 C         2.517965        -0.258648        -1.064532
 C         3.480071         0.827929        -0.525874
 C         3.707371         2.155796        -1.330735
 C         2.391964         2.888850        -1.212320
 O         2.069662         2.658874         0.251387
 C         2.271717         1.248591         0.475484
 H        -0.431877        -0.604759         0.808239
 H        -0.324041         1.182412         0.214286
 H        -0.844594        -0.034012        -1.013984
 H         2.659169        -0.707865        -2.010183
 H         4.455851         0.431480        -0.277680
 H         4.529327         2.667463        -0.761957
 H         4.009925         1.984502        -2.413193
 H         2.500292         3.939125        -1.292372
 H         1.529106         2.504547        -1.664136
 H         2.246675         1.085103         1.519252
