19
Iteration:  3805
 C        -0.060656        -0.197687        -0.301132
 C         1.382608         0.177186        -0.117839
 O         2.186403        -1.070642         0.211742
 C         2.443919        -0.232681        -1.087014
 C         3.364303         0.863882        -0.591780
 C         3.392164         2.013667        -1.686021
 C         2.831977         3.156037        -0.828734
 O         1.864999         2.648205         0.175808
 C         2.300180         1.301977         0.464079
 H        -0.449701        -0.802902         0.588127
 H        -0.630182         0.634393        -0.626697
 H         0.047519        -0.938828        -1.117585
 H         2.439651        -0.945329        -1.850778
 H         4.334150         0.428051        -0.262418
 H         4.441909         2.353003        -1.735828
 H         3.018296         1.793156        -2.640602
 H         3.605322         3.759394        -0.343872
 H         2.185611         3.818010        -1.356597
 H         2.557525         1.127026         1.562104
