19
Iteration:   890charge 0 multiplicity 1
 C        -0.125819         0.217458        -0.268203
 C         1.411841         0.118239        -0.165183
 O         2.173030        -1.128397         0.091269
 C         2.531781        -0.318610        -1.094182
 C         3.493494         0.839339        -0.619942
 C         3.625316         2.176494        -1.389613
 C         2.319826         2.843858        -1.102882
 O         2.126730         2.623599         0.317646
 C         2.232628         1.196017         0.465045
 H        -0.622434         0.567841         0.589829
 H        -0.322300         0.930758        -1.052482
 H        -0.636372        -0.682744        -0.556418
 H         2.364764        -0.973428        -1.972861
 H         4.421461         0.390697        -0.291580
 H         4.320606         2.704867        -0.754702
 H         4.043624         2.263792        -2.407597
 H         2.283776         3.912764        -1.254940
 H         1.371419         2.569314        -1.614427
 H         2.354495         0.963678         1.507907
