19
Iteration:  2480charge 0 multiplicity 1
 C        -0.008041         0.106635        -0.153150
 C         1.450445         0.136908        -0.075565
 O         2.145397        -1.117991        -0.038068
 C         2.590616        -0.272946        -1.082283
 C         3.404857         0.873201        -0.459385
 C         3.630824         2.050342        -1.406057
 C         2.522361         3.005762        -1.034362
 O         1.786877         2.556775         0.082972
 C         2.261653         1.202030         0.499313
 H        -0.505255        -0.151744         0.872235
 H        -0.306999         1.188677        -0.542249
 H        -0.322024        -0.666796        -0.931517
 H         2.468623        -0.763907        -2.086555
 H         4.367633         0.513528        -0.011801
 H         4.618615         2.633444        -1.429860
 H         3.479525         1.808186        -2.442146
 H         3.064883         3.904115        -0.636072
 H         1.910251         3.381362        -1.950156
 H         2.303774         1.349017         1.606166
