19
Iteration:  2873
 C        -0.094067        -0.025431        -0.272181
 C         1.377716         0.027461        -0.108757
 O         2.228190        -1.093855         0.195916
 C         2.465365        -0.279298        -1.006451
 C         3.455637         0.872438        -0.629486
 C         3.413355         2.076649        -1.588533
 C         2.790789         3.248530        -0.746142
 O         1.806301         2.484305         0.032800
 C         2.299838         1.290608         0.388867
 H        -0.630074        -0.049987         0.688505
 H        -0.450108         0.862072        -0.954127
 H        -0.285241        -0.912599        -0.926405
 H         2.420595        -0.882502        -1.923076
 H         4.443972         0.648517        -0.055296
 H         4.407442         2.471154        -1.952794
 H         2.898819         1.660166        -2.531232
 H         3.600756         3.685957        -0.043555
 H         2.292597         4.057343        -1.273025
 H         2.474633         1.123835         1.494580
