19
Iteration:  3547
 C        -0.058841         0.233384        -0.237538
 C         1.451514        -0.024334        -0.181769
 O         2.185544        -1.147058         0.203846
 C         2.668042        -0.344879        -1.032529
 C         3.360750         0.946456        -0.574623
 C         3.402156         2.083635        -1.595933
 C         2.676454         3.167602        -0.795106
 O         1.773841         2.456170         0.077038
 C         2.332626         1.206062         0.387945
 H        -0.421106         0.332602         0.800458
 H        -0.257745         1.036279        -0.951740
 H        -0.577545        -0.736614        -0.732228
 H         2.757081        -1.012487        -1.898313
 H         4.336564         0.724888        -0.229165
 H         4.343714         2.407747        -2.004758
 H         2.685264         1.594084        -2.366599
 H         3.416710         3.736536        -0.252657
 H         2.028278         3.857824        -1.379338
 H         2.575981         1.335357         1.506669
