19
Iteration:  4327
 C        -0.091351         0.067274        -0.169069
 C         1.396874         0.051864        -0.120221
 O         2.202769        -1.196840        -0.018073
 C         2.441557        -0.205273        -1.095962
 C         3.426058         0.861846        -0.586377
 C         3.708584         2.197373        -1.374913
 C         2.449228         3.037628        -1.018832
 O         1.907186         2.534356         0.200820
 C         2.308096         1.257883         0.486741
 H        -0.584546        -0.403424         0.776211
 H        -0.393805         1.063637        -0.370385
 H        -0.381891        -0.553030        -1.006903
 H         2.246496        -0.572684        -2.091660
 H         4.408555         0.425724        -0.380516
 H         4.643209         2.542153        -0.967262
 H         3.860739         1.993164        -2.395711
 H         2.651389         4.130110        -0.860431
 H         1.720919         3.013690        -1.927724
 H         2.633673         1.178027         1.476079
