19
Iteration:  2598charge 0 multiplicity 1
 C        -0.043589        -0.151977        -0.233040
 C         1.415971         0.068308        -0.186713
 O         2.221875        -1.017499         0.161382
 C         2.538530        -0.393611        -1.012238
 C         3.381433         0.838143        -0.602585
 C         3.407337         2.072527        -1.519926
 C         2.912659         3.180729        -0.654061
 O         1.740293         2.635997        -0.067980
 C         2.211604         1.305160         0.368445
 H        -0.418034         0.092542         0.723045
 H        -0.350717         0.585442        -0.964472
 H        -0.439168        -1.144498        -0.479040
 H         2.562399        -0.868825        -2.054318
 H         4.306100         0.787304         0.022224
 H         4.308357         2.150710        -2.145808
 H         2.475084         2.027640        -2.305334
 H         3.808936         3.479035         0.048371
 H         2.483186         4.042633        -1.113337
 H         2.211212         1.367746         1.479634
