19
Iteration:  3341
 C        -0.049424         0.303995        -0.156352
 C         1.435170         0.104273        -0.163148
 O         2.160036        -1.117237        -0.007796
 C         2.582043        -0.252952        -1.115598
 C         3.529311         0.815492        -0.495555
 C         3.587681         2.068385        -1.317907
 C         2.247798         2.867215        -1.142680
 O         1.911520         2.579055         0.236360
 C         2.377673         1.187997         0.440080
 H        -0.310504         0.021843         0.850664
 H        -0.403903         1.254259        -0.526630
 H        -0.511787        -0.459403        -0.910509
 H         2.722266        -0.666584        -2.151942
 H         4.454103         0.419531        -0.156746
 H         4.304625         2.755541        -0.730908
 H         3.916567         2.129857        -2.392703
 H         2.409256         3.927526        -1.315807
 H         1.451525         2.425640        -1.810314
 H         2.533614         1.111717         1.533566
