19
Iteration:  4733
 C        -0.018671         0.063028        -0.381848
 C         1.446839         0.161298        -0.120617
 O         2.254239        -1.131462         0.053164
 C         2.550885        -0.258630        -1.021752
 C         3.434264         0.840516        -0.527227
 C         3.276262         1.975833        -1.613657
 C         2.736462         3.124516        -0.765095
 O         1.810776         2.557084         0.128388
 C         2.327110         1.289532         0.538763
 H        -0.552100        -0.156042         0.572684
 H        -0.469153         0.968747        -0.594970
 H        -0.419342        -0.591374        -1.095858
 H         2.515939        -0.739801        -1.952068
 H         4.446173         0.528258        -0.236381
 H         4.136533         2.116725        -2.365657
 H         2.356013         1.565353        -2.087411
 H         3.512755         3.650399        -0.159704
 H         2.097963         3.755774        -1.286092
 H         2.533642         1.184741         1.628640
