19
Iteration:  1213charge 0 multiplicity 1
 C         0.059354         0.232122        -0.394805
 C         1.462244         0.182815        -0.113642
 O         2.102714        -1.129159         0.107166
 C         2.482317        -0.345459        -1.013273
 C         3.537927         0.781601        -0.595852
 C         3.575939         2.164120        -1.401931
 C         2.269634         2.878386        -1.084874
 O         1.914482         2.599729         0.273646
 C         2.434843         1.169567         0.550966
 H        -0.467617        -0.349649         0.341122
 H        -0.493952         1.172322        -0.379039
 H        -0.314274        -0.075253        -1.338282
 H         2.326958        -0.496071        -2.137817
 H         4.490411         0.311972        -0.333991
 H         4.420467         2.856889        -1.094528
 H         3.715878         2.059303        -2.542809
 H         2.324545         3.944862        -1.204979
 H         1.450746         2.537765        -1.792498
 H         2.640801         1.191266         1.673242
