19
Iteration:  1949
 C        -0.061484         0.018832        -0.276428
 C         1.446353         0.233025        -0.146815
 O         2.106453        -1.059895        -0.004952
 C         2.536851        -0.123345        -1.071083
 C         3.446347         0.823657        -0.444853
 C         3.655616         2.029136        -1.435798
 C         2.395447         2.875272        -1.119448
 O         1.945163         2.562644         0.220604
 C         2.341263         1.227970         0.562027
 H        -0.437595        -0.525533         0.610161
 H        -0.540843         1.047539        -0.424239
 H        -0.223759        -0.584821        -1.087595
 H         2.325610        -0.403171        -2.066210
 H         4.390261         0.584174        -0.016337
 H         4.463457         2.652226        -0.894670
 H         3.907569         1.720116        -2.534491
 H         2.454758         4.018943        -1.149974
 H         1.447419         2.624520        -1.739277
 H         2.497914         1.253697         1.672688
