19
Iteration:    23
 C        -0.087373         0.200103        -0.073892
 C         1.431668         0.251997        -0.345932
 O         1.927833        -1.184027         0.019484
 C         2.594884        -0.483140        -1.026513
 C         3.566629         0.759748        -0.628338
 C         3.669554         2.115931        -1.393465
 C         2.368766         3.022651        -1.107212
 O         1.939856         2.677637         0.315120
 C         2.408046         1.224214         0.455120
 H        -0.255325        -0.293277         0.876086
 H        -0.639355         1.147725        -0.091765
 H        -0.528181        -0.430861        -0.842737
 H         2.659787        -0.937374        -2.021859
 H         4.504763         0.355159        -0.290659
 H         4.554440         2.599216        -0.958249
 H         3.822338         2.146780        -2.460845
 H         2.664064         4.082373        -1.113766
 H         1.593111         2.866227        -1.844073
 H         2.543412         0.913916         1.468011
