19
Iteration:  1490charge 0 multiplicity 1
 C        -0.095925         0.229473        -0.270827
 C         1.464556         0.135957        -0.294546
 O         2.124064        -1.140736         0.055957
 C         2.622270        -0.276969        -1.005701
 C         3.504921         0.832698        -0.388759
 C         3.564871         2.069176        -1.429929
 C         2.250601         2.875739        -1.134991
 O         2.010089         2.583215         0.316554
 C         2.313003         1.241487         0.449339
 H        -0.490058         0.409292         0.730818
 H        -0.272044         1.113991        -0.881406
 H        -0.468191        -0.662794        -0.763616
 H         2.746547        -0.504358        -2.151301
 H         4.500163         0.595663         0.034765
 H         4.487323         2.678852        -1.195632
 H         3.819152         1.800339        -2.576163
 H         2.423633         3.980857        -1.437309
 H         1.286373         2.672308        -1.688633
 H         2.563508         0.985993         1.512863
