19
Iteration:  2521charge 0 multiplicity 1
 C        -0.083521         0.010337        -0.226902
 C         1.422438         0.067939        -0.113546
 O         2.170610        -1.081815         0.109278
 C         2.535714        -0.364879        -1.040043
 C         3.477642         0.874394        -0.546341
 C         3.542431         2.089290        -1.510697
 C         2.676957         3.133385        -0.910807
 O         1.775539         2.531602         0.062764
 C         2.245872         1.310299         0.473200
 H        -0.545771        -0.382126         0.620109
 H        -0.478618         0.992207        -0.311320
 H        -0.337279        -0.453852        -1.192563
 H         2.579670        -0.878415        -2.061689
 H         4.408670         0.659873        -0.001176
 H         4.535204         2.406836        -1.657460
 H         3.356468         1.712265        -2.573017
 H         3.308083         3.906902        -0.436810
 H         1.988449         3.655424        -1.521511
 H         2.463136         1.177696         1.515378
