19
Iteration:  1727charge 0 multiplicity 1
 C        -0.018767         0.176975        -0.356735
 C         1.466730         0.201387        -0.187536
 O         2.048698        -1.069706        -0.004913
 C         2.588194        -0.205262        -1.007760
 C         3.592091         0.908445        -0.438302
 C         3.542439         2.017060        -1.445180
 C         2.258867         2.803354        -1.064507
 O         1.959869         2.555387         0.280051
 C         2.410841         1.228273         0.545092
 H        -0.567862         0.180255         0.560087
 H        -0.313139         1.150950        -0.620431
 H        -0.378336        -0.513284        -1.129382
 H         2.642305        -0.598636        -2.084445
 H         4.472109         0.597263         0.095423
 H         4.552533         2.418043        -1.589817
 H         3.507382         1.468462        -2.527682
 H         2.222044         3.859430        -1.099415
 H         1.385306         2.398584        -1.554482
 H         2.492466         1.153177         1.644444
