19
Iteration:  3137charge 0 multiplicity 1
 C        -0.011656         0.129042        -0.122335
 C         1.464547         0.218087        -0.173398
 O         2.135284        -1.062155        -0.089159
 C         2.585664        -0.255162        -1.134595
 C         3.474189         0.767898        -0.439010
 C         3.656025         2.064140        -1.335164
 C         2.260082         2.804707        -1.170368
 O         1.960365         2.633281         0.248057
 C         2.272357         1.290393         0.516515
 H        -0.390170        -0.430742         0.787610
 H        -0.340227         1.158022        -0.110390
 H        -0.415464        -0.440792        -1.059416
 H         2.464081        -0.492120        -2.208305
 H         4.501860         0.388450        -0.097238
 H         4.512416         2.705024        -1.025794
 H         3.866643         1.907174        -2.337039
 H         2.294289         3.910877        -1.399027
 H         1.360416         2.371311        -1.721339
 H         2.437252         1.004949         1.559559
