19
Iteration:  3441charge 0 multiplicity 1
 C        -0.153447        -0.002215        -0.173307
 C         1.377748         0.189652        -0.245788
 O         2.204875        -1.083755         0.105504
 C         2.519105        -0.267444        -1.125407
 C         3.423897         0.770973        -0.587034
 C         3.627273         2.140747        -1.418488
 C         2.449513         3.001073        -1.055737
 O         2.021413         2.606474         0.221491
 C         2.267537         1.221641         0.473887
 H        -0.243314        -0.434931         0.873850
 H        -0.798839         0.850456        -0.128851
 H        -0.627435        -0.647182        -0.989449
 H         2.568638        -0.941758        -1.920716
 H         4.365835         0.540386        -0.035974
 H         4.650933         2.589075        -1.052216
 H         3.873705         2.045393        -2.488505
 H         2.688998         4.098978        -0.996516
 H         1.682952         3.117854        -1.880228
 H         2.315005         1.211336         1.598257
