19
Iteration:   283charge 0 multiplicity 1
 C        -0.072390         0.242997        -0.233775
 C         1.416096         0.111983        -0.038606
 O         2.170908        -1.131853        -0.051351
 C         2.382362        -0.114373        -1.120674
 C         3.509323         0.747602        -0.555916
 C         3.664945         2.095861        -1.402882
 C         2.418710         2.856857        -1.107135
 O         1.934876         2.553256         0.242597
 C         2.417917         1.213566         0.611132
 H        -0.686553         0.419015         0.698144
 H        -0.215963         1.189668        -0.779403
 H        -0.522950        -0.531405        -0.867927
 H         2.151893        -0.424506        -2.202113
 H         4.386093         0.093248        -0.358214
 H         4.578659         2.743121        -1.328157
 H         3.293127         1.831571        -2.422287
 H         2.518152         3.942657        -0.999560
 H         1.671588         2.461920        -1.761607
 H         2.530114         1.120173         1.771169
