19
Iteration:  2401
 C        -0.144971         0.058159        -0.187438
 C         1.404271         0.217835        -0.154761
 O         2.117477        -1.039319        -0.076361
 C         2.538784        -0.189323        -1.113112
 C         3.502422         0.829714        -0.450730
 C         3.684528         2.092301        -1.287266
 C         2.317674         2.830058        -1.153021
 O         2.038815         2.610328         0.231210
 C         2.340392         1.197364         0.518412
 H        -0.573171        -0.120145         0.828556
 H        -0.650263         0.932441        -0.630008
 H        -0.228564        -0.840094        -0.956848
 H         2.518240        -0.703341        -2.126833
 H         4.463667         0.441218        -0.064401
 H         4.407531         2.811690        -0.874310
 H         3.952566         2.003426        -2.386495
 H         2.231623         3.858416        -1.510091
 H         1.558957         2.208701        -1.768268
 H         2.340333         1.289082         1.578882
