19
Iteration:  2653charge 0 multiplicity 1
 C        -0.069832        -0.041285        -0.248863
 C         1.411564         0.083101        -0.119239
 O         2.229183        -1.110600         0.195043
 C         2.426390        -0.267118        -1.078447
 C         3.423289         0.815098        -0.621180
 C         3.524262         2.070046        -1.448430
 C         2.747245         3.231944        -0.827963
 O         1.740023         2.546616         0.022814
 C         2.321554         1.291090         0.373334
 H        -0.597201        -0.059781         0.671095
 H        -0.593278         0.670573        -0.932929
 H        -0.121155        -1.044157        -0.626045
 H         2.515111        -0.823460        -2.027088
 H         4.364423         0.562752        -0.056797
 H         4.644734         2.198129        -1.543904
 H         3.024655         1.847518        -2.503136
 H         3.493235         3.916825        -0.233849
 H         2.142584         3.855750        -1.420144
 H         2.432864         1.151128         1.465316
