19
Iteration:  3349
 C        -0.032127         0.315481        -0.192831
 C         1.467482         0.104971        -0.161488
 O         2.146366        -1.160967        -0.018339
 C         2.574839        -0.194467        -1.098382
 C         3.547813         0.825984        -0.525588
 C         3.601253         2.143176        -1.285644
 C         2.256891         2.794290        -1.185387
 O         1.893357         2.547802         0.234794
 C         2.409318         1.200307         0.491295
 H        -0.411606         0.199232         0.856859
 H        -0.382687         1.412942        -0.331613
 H        -0.686668        -0.430070        -0.700662
 H         2.501015        -0.600607        -2.134731
 H         4.426335         0.466111        -0.043529
 H         4.333182         2.757805        -0.949538
 H         3.892480         1.901840        -2.323752
 H         2.229548         3.876550        -1.323965
 H         1.465470         2.453776        -1.923379
 H         2.331043         0.936562         1.536997
