19
Iteration:  4092charge 0 multiplicity 1
 C        -0.031159         0.188047        -0.318572
 C         1.444074         0.116782        -0.217472
 O         2.111988        -1.098374         0.120089
 C         2.524458        -0.191911        -1.086488
 C         3.527449         0.909063        -0.586644
 C         3.526757         2.135782        -1.437164
 C         2.312574         2.919981        -0.978174
 O         2.017251         2.499600         0.300542
 C         2.351072         1.158755         0.466612
 H        -0.521598         0.333199         0.556814
 H        -0.358366         0.906808        -1.108040
 H        -0.453010        -0.773493        -0.734898
 H         2.691212        -0.694948        -2.020775
 H         4.468964         0.550868        -0.177722
 H         4.464504         2.606990        -1.202813
 H         3.493920         1.867171        -2.504971
 H         2.467392         3.948632        -1.005739
 H         1.439022         2.563090        -1.531444
 H         2.613805         0.880221         1.533057
