19
Iteration:  4022
 C        -0.137527         0.246392        -0.105997
 C         1.437387         0.198805        -0.048855
 O         2.205451        -1.105595        -0.117196
 C         2.455911        -0.134311        -1.131646
 C         3.550637         0.817118        -0.516486
 C         3.713546         2.166104        -1.269907
 C         2.254591         2.710813        -1.124733
 O         1.873466         2.514730         0.189269
 C         2.468672         1.202668         0.477539
 H        -0.768220        -0.342211         0.744719
 H        -0.511582         1.247426        -0.321145
 H        -0.374154        -0.285337        -0.997241
 H         2.352659        -0.521496        -2.177645
 H         4.498197         0.328390        -0.241754
 H         4.441767         2.925101        -0.771885
 H         3.938728         1.994547        -2.372210
 H         2.149424         3.811694        -1.393391
 H         1.779045         2.086061        -1.908062
 H         2.550266         1.163308         1.557802
