19
Iteration:  3382charge 0 multiplicity 1
 C        -0.047105         0.307616        -0.178021
 C         1.515606         0.179739         0.005905
 O         2.146998        -1.128287        -0.164284
 C         2.526284        -0.041104        -1.086907
 C         3.548246         0.783542        -0.490267
 C         3.632764         2.105580        -1.270856
 C         2.211360         2.663449        -1.225085
 O         1.846727         2.508170         0.196666
 C         2.452632         1.226194         0.559286
 H        -0.654357         0.199687         0.734793
 H        -0.172577         1.351342        -0.610335
 H        -0.397014        -0.467556        -0.945078
 H         2.328692        -0.411383        -2.121467
 H         4.444590         0.504872        -0.008573
 H         4.304520         2.700374        -0.824216
 H         3.922670         1.763060        -2.249920
 H         2.288331         3.733478        -1.385471
 H         1.479727         2.122754        -1.873273
 H         2.713056         1.167493         1.625955
