19
Iteration:  3700charge 0 multiplicity 1
 C         0.011115         0.101350        -0.126516
 C         1.488605         0.074758        -0.024948
 O         2.209533        -1.207299         0.115811
 C         2.397072        -0.216414        -1.038637
 C         3.354982         0.911295        -0.630080
 C         3.630233         2.148963        -1.514697
 C         2.719692         3.123806        -0.752427
 O         1.630549         2.422322        -0.128820
 C         2.325195         1.242933         0.394703
 H        -0.393395         0.242880         0.786257
 H        -0.169190         0.999389        -0.656834
 H        -0.221395        -0.873976        -0.653029
 H         2.207962        -0.659221        -1.983894
 H         4.299135         0.517429        -0.274879
 H         4.626958         2.360971        -1.817555
 H         3.092038         1.967123        -2.549436
 H         3.285022         3.483746         0.144417
 H         2.310487         4.020033        -1.279508
 H         2.620878         1.296128         1.426709
