19
Iteration:  2445charge 0 multiplicity 1
 C        -0.131644         0.088596        -0.200645
 C         1.412627         0.100681        -0.097404
 O         2.183604        -1.085875         0.029321
 C         2.460228        -0.268900        -1.088120
 C         3.459950         0.858795        -0.549941
 C         3.721331         2.208933        -1.314393
 C         2.429030         2.927633        -1.092664
 O         1.922155         2.566725         0.133435
 C         2.324507         1.199070         0.483488
 H        -0.682336         0.050887         0.786272
 H        -0.494784         1.003206        -0.726391
 H        -0.490324        -0.847169        -0.809822
 H         2.324944        -0.732000        -2.146590
 H         4.347163         0.340041        -0.157709
 H         4.579150         2.739117        -0.832124
 H         3.859004         1.874925        -2.380847
 H         2.612950         3.983993        -0.868855
 H         1.818550         2.875288        -2.053375
 H         2.556346         1.086440         1.532602
