19
Iteration:  1229
 C        -0.017120         0.274814        -0.362907
 C         1.483643         0.134584         0.001485
 O         2.156829        -1.062808         0.047815
 C         2.487256        -0.173325        -1.082001
 C         3.475724         0.832758        -0.540369
 C         3.556301         2.057020        -1.359751
 C         2.232725         2.838277        -1.106244
 O         1.951362         2.439262         0.203423
 C         2.448082         1.247376         0.529052
 H        -0.829479        -0.219635         0.249462
 H        -0.205344         1.366951        -0.323706
 H        -0.030660        -0.203841        -1.395770
 H         2.383225        -0.736874        -1.959028
 H         4.488693         0.508107        -0.225088
 H         4.340950         2.630334        -0.884151
 H         3.884995         1.922780        -2.358820
 H         2.360069         3.998795        -1.097912
 H         1.365206         2.579235        -1.857053
 H         2.746601         1.033751         1.518269
