19
Iteration:  3379charge 0 multiplicity 1
 C        -0.035605         0.335347        -0.188170
 C         1.515384         0.148393         0.022443
 O         2.142329        -1.116110        -0.167003
 C         2.524328        -0.057078        -1.084182
 C         3.535707         0.810228        -0.485261
 C         3.631417         2.101475        -1.304078
 C         2.227998         2.660696        -1.208052
 O         1.842003         2.498245         0.194840
 C         2.452159         1.214237         0.540816
 H        -0.695348         0.194402         0.698291
 H        -0.241272         1.386639        -0.546056
 H        -0.305652        -0.463728        -0.779265
 H         2.430580        -0.413734        -2.095126
 H         4.475039         0.457682         0.076917
 H         4.375266         2.790476        -0.773149
 H         3.923217         1.852587        -2.333745
 H         2.194615         3.763099        -1.416938
 H         1.543662         2.111086        -1.821005
 H         2.568416         1.089545         1.649401
