19
Iteration:  4999charge 0 multiplicity 1
 C         0.009721         0.233157        -0.255781
 C         1.430556         0.204872        -0.169098
 O         2.084204        -1.108797        -0.014413
 C         2.510179        -0.306760        -1.087837
 C         3.469714         0.863760        -0.644047
 C         3.530144         2.187060        -1.379213
 C         2.253694         2.791545        -1.066684
 O         2.072635         2.535435         0.348466
 C         2.401987         1.161596         0.508209
 H        -0.385575         0.237521         0.739505
 H        -0.367892         1.223208        -0.725317
 H        -0.384454        -0.698180        -0.831961
 H         2.655534        -0.588492        -2.115865
 H         4.442726         0.541747        -0.215108
 H         4.185167         2.757703        -0.751696
 H         4.022010         2.376299        -2.394337
 H         2.191650         3.868728        -1.135375
 H         1.444892         2.436165        -1.656860
 H         2.650311         0.837184         1.508680
