19
Iteration:  2606
 C        -0.069411        -0.145942        -0.254202
 C         1.390820         0.070088        -0.203609
 O         2.234167        -1.066653         0.205114
 C         2.549644        -0.343481        -1.010871
 C         3.377467         0.869243        -0.589751
 C         3.407898         2.068462        -1.550232
 C         2.872243         3.193404        -0.630392
 O         1.779668         2.643230        -0.062487
 C         2.215764         1.312449         0.319661
 H        -0.447277         0.152441         0.770694
 H        -0.522113         0.537685        -0.931011
 H        -0.453700        -1.209897        -0.384329
 H         2.510857        -0.786090        -2.083120
 H         4.296767         0.624494        -0.053078
 H         4.350983         2.177206        -1.975933
 H         2.647495         1.680711        -2.288832
 H         3.579336         3.511800         0.174750
 H         2.555510         4.128440        -1.213297
 H         2.556910         1.117837         1.358438
