19
Iteration:  4771
 C        -0.118474        -0.143223        -0.282377
 C         1.383716         0.058280        -0.232378
 O         2.192779        -1.114302         0.210438
 C         2.477379        -0.406626        -1.034174
 C         3.376656         0.871116        -0.664418
 C         3.441620         2.111420        -1.659595
 C         2.865260         3.217619        -0.650398
 O         1.841662         2.642313         0.165361
 C         2.286041         1.314870         0.392053
 H        -0.301906        -0.519045         0.710344
 H        -0.511280         0.947461        -0.528833
 H        -0.379269        -0.972977        -1.015079
 H         2.726095        -0.909185        -2.045218
 H         4.355905         0.539374        -0.264564
 H         4.302411         2.489033        -2.135500
 H         2.686077         2.135433        -2.437723
 H         3.614444         3.785886        -0.178810
 H         2.285696         3.990661        -1.373386
 H         2.353548         1.228030         1.466746
