19
Iteration:  1363charge 0 multiplicity 1
 C        -0.111585         0.000761        -0.146739
 C         1.431744         0.117965        -0.152064
 O         2.088429        -1.081136         0.038751
 C         2.501773        -0.249965        -1.047459
 C         3.451834         0.865642        -0.573914
 C         3.798818         2.120257        -1.409425
 C         2.512076         3.047862        -1.075332
 O         1.804796         2.539210         0.151151
 C         2.357753         1.301220         0.488074
 H        -0.471636        -0.370696         0.886505
 H        -0.617521         1.008768        -0.409403
 H        -0.439123        -0.801551        -0.845193
 H         2.321655        -0.754072        -2.066278
 H         4.414379         0.343105        -0.227255
 H         4.766938         2.556696        -1.118034
 H         3.721185         1.700459        -2.341940
 H         2.693496         4.095370        -0.839297
 H         1.728334         2.860309        -1.968632
 H         2.512331         1.038113         1.523178
