19
Iteration:  4192
 C        -0.031051         0.099633        -0.221809
 C         1.475987         0.100347        -0.225399
 O         2.196931        -1.140479         0.006889
 C         2.569396        -0.317223        -1.143004
 C         3.431127         0.848604        -0.506515
 C         3.545530         2.094190        -1.432157
 C         2.447991         3.092346        -0.967105
 O         1.907823         2.593442         0.266858
 C         2.255422         1.166718         0.489749
 H        -0.447615        -0.080151         0.714153
 H        -0.357399         1.222457        -0.452951
 H        -0.526638        -0.367504        -1.086297
 H         2.448765        -0.914688        -2.016396
 H         4.437163         0.632373        -0.100862
 H         4.605034         2.332358        -1.478798
 H         3.256972         1.706341        -2.448429
 H         2.921541         4.098040        -0.745340
 H         1.634055         3.474033        -1.663652
 H         2.255797         1.073903         1.606392
