19
Iteration:  1422
 C        -0.059600         0.168672        -0.338231
 C         1.413701         0.116662        -0.096254
 O         2.113778        -1.153333         0.052183
 C         2.580837        -0.231997        -1.004431
 C         3.501444         0.867761        -0.495273
 C         3.548638         2.070188        -1.486970
 C         2.378492         2.869785        -1.122646
 O         1.973056         2.580870         0.285175
 C         2.361703         1.280654         0.515116
 H        -0.586920        -0.162280         0.576345
 H        -0.263710         1.231372        -0.570939
 H        -0.218019        -0.459564        -1.270809
 H         2.401269        -0.538912        -1.990165
 H         4.432279         0.449910        -0.208968
 H         4.376569         2.684532        -1.124567
 H         3.800011         2.006747        -2.569640
 H         2.373465         3.969439        -1.149661
 H         1.459144         2.614145        -1.751257
 H         2.370884         1.104838         1.645261
