19
Iteration:  2317charge 0 multiplicity 1
 C        -0.031370         0.196434        -0.346130
 C         1.393940         0.142692        -0.178151
 O         2.130939        -1.084410         0.125322
 C         2.543354        -0.331998        -1.015909
 C         3.472439         0.858021        -0.605736
 C         3.668164         2.186102        -1.373810
 C         2.296608         2.944530        -1.070670
 O         1.933845         2.533473         0.278218
 C         2.378360         1.132208         0.464055
 H        -0.552973        -0.270804         0.499856
 H        -0.356048         1.262038        -0.419104
 H        -0.452973        -0.262627        -1.167594
 H         2.562553        -1.022896        -1.950206
 H         4.376355         0.262139        -0.297876
 H         4.539121         2.899977        -1.045676
 H         3.764401         2.069311        -2.549309
 H         2.440097         4.008116        -1.163573
 H         1.557663         2.625919        -1.767215
 H         2.661086         1.151037         1.559486
