19
Iteration:  3514
 C        -0.008396         0.064053        -0.250078
 C         1.447225         0.075061        -0.177561
 O         2.178786        -1.098295         0.135597
 C         2.553446        -0.272834        -1.081874
 C         3.411626         0.830979        -0.581970
 C         3.470369         1.984225        -1.503680
 C         2.631392         3.140131        -0.898758
 O         1.804778         2.606353         0.181870
 C         2.311944         1.293760         0.480345
 H        -0.634695         0.104742         0.633660
 H        -0.494526         0.778416        -0.933879
 H        -0.133025        -1.038294        -0.671060
 H         2.624090        -0.832296        -2.038489
 H         4.367007         0.417330        -0.337962
 H         4.348890         2.363775        -1.930902
 H         2.914053         1.556935        -2.396585
 H         3.265770         3.955106        -0.572347
 H         1.891596         3.537606        -1.616049
 H         2.534101         1.092761         1.584868
