19
Iteration:  3948
 C        -0.113109        -0.121335        -0.046752
 C         1.355756         0.102677        -0.176762
 O         2.184496        -1.028472         0.046086
 C         2.470746        -0.189993        -1.162407
 C         3.421636         0.825924        -0.521684
 C         3.675651         2.073705        -1.437291
 C         2.609004         3.130688        -1.008408
 O         1.934223         2.602672         0.160010
 C         2.184791         1.220661         0.412744
 H        -0.307470        -0.743330         0.818368
 H        -0.688476         0.728338        -0.107191
 H        -0.375466        -0.802347        -0.915079
 H         2.507186        -0.849149        -2.099708
 H         4.288737         0.415652         0.015300
 H         4.652449         2.586943        -1.533780
 H         3.481480         1.782744        -2.484506
 H         3.214083         4.047513        -0.822018
 H         1.913404         3.457035        -1.786213
 H         2.391668         1.133222         1.533819
