19
Iteration:  2310charge 0 multiplicity 1
 C        -0.063594         0.162277        -0.371823
 C         1.425337         0.162160        -0.214094
 O         2.151264        -1.080657         0.105328
 C         2.515472        -0.345182        -1.023560
 C         3.461924         0.882247        -0.580078
 C         3.608522         2.154191        -1.392681
 C         2.308802         2.915445        -1.082907
 O         1.953019         2.573306         0.291616
 C         2.419921         1.182735         0.504622
 H        -0.419107        -0.221332         0.603787
 H        -0.478330         1.198941        -0.372356
 H        -0.552089        -0.375914        -1.219900
 H         2.479962        -0.967252        -1.879933
 H         4.341509         0.327422        -0.212624
 H         4.458838         2.668092        -0.923941
 H         4.036517         1.979047        -2.427891
 H         2.495998         4.044019        -1.100770
 H         1.464782         2.676969        -1.795129
 H         2.621775         0.868569         1.539431
