19
Iteration:  1825charge 0 multiplicity 1
 C        -0.069057         0.001346        -0.223928
 C         1.411621         0.180977        -0.185138
 O         2.132717        -1.098517        -0.086435
 C         2.485155        -0.208139        -1.087622
 C         3.489811         0.929202        -0.406815
 C         3.643158         1.996049        -1.392057
 C         2.461159         2.890460        -1.123507
 O         1.984571         2.671274         0.258850
 C         2.265198         1.262751         0.563634
 H        -0.441753        -0.096065         0.787803
 H        -0.520879         0.836750        -0.720040
 H        -0.383472        -0.984133        -0.789117
 H         2.535707        -0.769077        -2.096295
 H         4.444918         0.524065        -0.035248
 H         4.473308         2.668523        -1.177345
 H         3.711624         1.732858        -2.544841
 H         2.545085         3.962937        -1.143431
 H         1.516288         2.655931        -1.798018
 H         2.235557         1.124784         1.655780
