19
Iteration:  2151charge 0 multiplicity 1
 C        -0.113867         0.025721        -0.157909
 C         1.360625         0.178742        -0.080986
 O         2.187647        -1.097996        -0.139154
 C         2.488306        -0.125706        -1.097431
 C         3.444372         0.937759        -0.398663
 C         3.662998         2.012204        -1.334390
 C         2.397093         2.855554        -1.189827
 O         1.957264         2.639798         0.193206
 C         2.334195         1.193291         0.544702
 H        -0.325609        -0.548048         0.693002
 H        -0.600550         0.910634        -0.209558
 H        -0.290746        -0.595422        -1.073653
 H         2.433866        -0.259150        -2.156745
 H         4.308960         0.424893         0.080759
 H         4.659606         2.577217        -1.047811
 H         3.952383         1.702453        -2.346128
 H         2.623153         3.884646        -1.306349
 H         1.627027         2.571259        -1.909782
 H         2.640189         1.182519         1.615023
