19
Iteration:  1488
 C        -0.097891         0.240393        -0.283811
 C         1.470270         0.123484        -0.288719
 O         2.133888        -1.131749         0.054490
 C         2.601238        -0.289586        -1.024169
 C         3.504265         0.839341        -0.368080
 C         3.575406         2.086148        -1.443475
 C         2.244235         2.867438        -1.123461
 O         2.032213         2.584433         0.318696
 C         2.321298         1.233738         0.454305
 H        -0.603023         0.410010         0.706558
 H        -0.304984         1.155195        -0.877790
 H        -0.514891        -0.702882        -0.786273
 H         2.795092        -0.582172        -2.075006
 H         4.458131         0.531930         0.003318
 H         4.424478         2.722717        -1.205900
 H         3.758936         1.833790        -2.508468
 H         2.338105         3.944285        -1.489639
 H         1.260578         2.603661        -1.741465
 H         2.542094         1.070339         1.572102
