19
Iteration:  1262charge 0 multiplicity 1
 C        -0.011156         0.244792        -0.152863
 C         1.470795         0.157394        -0.161872
 O         2.149285        -1.183177        -0.105900
 C         2.553417        -0.254056        -1.109484
 C         3.558500         0.869216        -0.467733
 C         3.677735         2.045621        -1.334649
 C         2.275379         2.805261        -1.103242
 O         1.917994         2.586989         0.197319
 C         2.264653         1.326567         0.547085
 H        -0.430051         0.037640         0.850286
 H        -0.377423         1.214581        -0.451281
 H        -0.657121        -0.320629        -0.858061
 H         2.496829        -0.536126        -2.126160
 H         4.509737         0.500474        -0.035559
 H         4.465412         2.692967        -0.969174
 H         3.853916         1.856549        -2.359709
 H         2.028915         3.903543        -1.351043
 H         1.523696         2.143120        -1.735654
 H         2.277520         1.152307         1.595290
