19
Iteration:  1994charge 0 multiplicity 1
 C        -0.056847         0.123077        -0.414934
 C         1.419761         0.112267        -0.230525
 O         2.193987        -1.121165         0.154178
 C         2.508425        -0.287474        -1.020493
 C         3.399760         0.835046        -0.601629
 C         3.577945         2.098456        -1.402129
 C         2.239003         2.927364        -1.048086
 O         2.118469         2.649519         0.349590
 C         2.282507         1.276459         0.432476
 H        -0.407738        -0.084290         0.604326
 H        -0.354571         1.039714        -0.928786
 H        -0.337574        -0.724512        -0.907647
 H         2.689240        -0.944304        -1.896142
 H         4.308779         0.406969        -0.147684
 H         4.421390         2.599705        -0.759454
 H         3.986371         1.932597        -2.471015
 H         2.595192         3.988625        -1.221539
 H         1.388442         2.697683        -1.761464
 H         2.500208         1.061360         1.491561
