19
Iteration:  2620charge 0 multiplicity 1
 C        -0.155076        -0.093642        -0.228031
 C         1.388166         0.068056        -0.190757
 O         2.235603        -1.104497         0.223104
 C         2.534820        -0.284005        -1.035465
 C         3.395367         0.899305        -0.623638
 C         3.483569         2.072136        -1.586611
 C         2.908610         3.242455        -0.748421
 O         1.729451         2.549915         0.034535
 C         2.203595         1.261905         0.377707
 H        -0.600001         0.032951         0.721235
 H        -0.653064         0.399760        -1.077329
 H        -0.198174        -1.162619        -0.420161
 H         2.729388        -1.058201        -1.838453
 H         4.425317         0.676918        -0.193588
 H         4.540728         2.311242        -1.872507
 H         2.910597         2.165136        -2.622889
 H         3.777350         3.547776         0.000744
 H         2.502163         4.103258        -1.255029
 H         2.240538         1.308409         1.486746
