19
Iteration:  3418
 C        -0.069421         0.071173        -0.102317
 C         1.373691         0.147203        -0.143665
 O         2.111217        -1.102819        -0.019587
 C         2.529973        -0.190154        -1.112970
 C         3.502173         0.879144        -0.554058
 C         3.716541         2.125787        -1.300442
 C         2.334566         2.834019        -1.161843
 O         1.987051         2.610295         0.266193
 C         2.282526         1.194663         0.447005
 H        -0.633740        -0.144915         0.819057
 H        -0.410152         1.067018        -0.374840
 H        -0.418051        -0.494934        -1.060715
 H         2.541523        -0.566860        -2.133148
 H         4.409242         0.515958        -0.085739
 H         4.598858         2.718454        -1.043743
 H         3.876137         1.943406        -2.379845
 H         2.292408         3.906555        -1.398440
 H         1.604178         2.455307        -1.933172
 H         2.760434         1.183327         1.420373
