19
Iteration:  1688charge 0 multiplicity 1
 C        -0.048488         0.194630        -0.222202
 C         1.452765         0.205670        -0.210519
 O         2.165373        -1.103120         0.030651
 C         2.519871        -0.289876        -1.123441
 C         3.475497         0.818445        -0.497913
 C         3.647206         2.108604        -1.258463
 C         2.250820         2.773740        -1.115576
 O         1.969168         2.604281         0.223866
 C         2.370575         1.262570         0.458719
 H        -0.564376         0.203294         0.795678
 H        -0.156641         1.141124        -0.860615
 H        -0.552394        -0.519982        -0.854754
 H         2.419471        -0.712975        -2.131291
 H         4.398496         0.375403        -0.079662
 H         4.280800         2.869376        -0.769132
 H         3.958705         1.921375        -2.215370
 H         2.289152         3.873037        -1.402285
 H         1.538349         2.288518        -1.842657
 H         2.454977         1.101989         1.554077
