19
Iteration:  3840charge 0 multiplicity 1
 C        -0.086187         0.027294        -0.247467
 C         1.429178         0.018351        -0.179701
 O         2.231145        -1.095336         0.224541
 C         2.579602        -0.351363        -0.993567
 C         3.367698         0.873060        -0.565481
 C         3.293944         2.139470        -1.665154
 C         2.856500         3.214709        -0.725196
 O         1.845515         2.523890         0.034416
 C         2.256703         1.225105         0.386695
 H        -0.690301         0.008817         0.649015
 H        -0.607163         0.840144        -0.756296
 H        -0.465520        -0.873401        -0.957421
 H         2.750955        -1.121101        -1.776514
 H         4.449622         0.808324        -0.354459
 H         4.241547         2.358550        -2.100559
 H         2.558117         2.023784        -2.409097
 H         3.742992         3.563176        -0.189113
 H         2.289286         4.057697        -1.210027
 H         2.367909         1.159685         1.471972
