19
Iteration:  3067charge 0 multiplicity 1
 C        -0.106450        -0.025827        -0.184773
 C         1.390493         0.078827        -0.115536
 O         2.217282        -1.072388         0.084631
 C         2.451072        -0.284287        -1.104543
 C         3.447588         0.818352        -0.605825
 C         3.566170         2.082929        -1.415239
 C         2.555618         3.148736        -0.990674
 O         1.872706         2.538459         0.156631
 C         2.348135         1.274471         0.435064
 H        -0.589687        -0.159357         0.759164
 H        -0.417560         0.927128        -0.744094
 H        -0.343489        -0.933423        -0.691266
 H         2.303372        -0.602880        -2.133550
 H         4.334829         0.481609        -0.019774
 H         4.617663         2.354964        -1.188489
 H         3.761915         1.825983        -2.540869
 H         3.056574         4.021899        -0.597507
 H         1.892665         3.522490        -1.851230
 H         2.343611         1.428375         1.556577
