19
Iteration:  3381charge 0 multiplicity 1
 C        -0.044603         0.315531        -0.181388
 C         1.517410         0.170348         0.012632
 O         2.145420        -1.124813        -0.165712
 C         2.526967        -0.043303        -1.085169
 C         3.543991         0.789474        -0.489931
 C         3.633253         2.105906        -1.280801
 C         2.216144         2.661793        -1.220561
 O         1.844453         2.505470         0.196329
 C         2.453163         1.222483         0.551836
 H        -0.672628         0.196819         0.723099
 H        -0.193327         1.375953        -0.593725
 H        -0.367166        -0.465957        -0.888244
 H         2.358983        -0.417588        -2.113230
 H         4.451805         0.495772         0.024484
 H         4.313656         2.714976        -0.813644
 H         3.918888         1.786773        -2.268225
 H         2.263211         3.744114        -1.393287
 H         1.500944         2.117240        -1.853574
 H         2.666527         1.136935         1.635405
