19
Iteration:  2329charge 0 multiplicity 1
 C        -0.055854         0.252606        -0.306651
 C         1.461792         0.064268        -0.112989
 O         2.114190        -1.114072         0.162195
 C         2.548876        -0.284420        -1.097244
 C         3.535659         0.781419        -0.596006
 C         3.629582         2.227247        -1.372496
 C         2.334957         2.918977        -1.047234
 O         1.914169         2.489133         0.218079
 C         2.312125         1.219192         0.434379
 H        -0.721078        -0.159545         0.452060
 H        -0.227479         1.361711        -0.362440
 H        -0.203347        -0.145883        -1.234026
 H         2.536299        -0.797634        -2.106860
 H         4.543108         0.635992        -0.169372
 H         4.648889         2.705196        -1.060536
 H         3.641529         2.099710        -2.567027
 H         2.251793         4.016267        -0.980709
 H         1.626470         2.606002        -1.787140
 H         2.477438         0.963779         1.549230
