19
Iteration:   672charge 0 multiplicity 1
 C        -0.075767         0.272968        -0.218909
 C         1.401525         0.100306        -0.246769
 O         2.181134        -1.173164         0.125449
 C         2.528258        -0.281058        -1.209025
 C         3.470865         0.810852        -0.565008
 C         3.577921         2.060460        -1.279403
 C         2.285508         2.948198        -1.071481
 O         2.059377         2.622379         0.279895
 C         2.345432         1.224179         0.400324
 H        -0.205276         0.605037         0.902370
 H        -0.396961         1.065946        -1.059542
 H        -0.727626        -0.652530        -0.503113
 H         2.331550        -0.823638        -2.174734
 H         4.393741         0.299556        -0.235598
 H         4.477257         2.544981        -0.874184
 H         3.911370         1.952389        -2.404402
 H         2.494121         4.040931        -1.051537
 H         1.487773         2.523615        -1.648811
 H         2.221227         1.069184         1.481391
