19
Iteration:  4524charge 0 multiplicity 1
 C        -0.048915         0.324815        -0.128656
 C         1.460677         0.184345        -0.092693
 O         2.151384        -1.133447        -0.221565
 C         2.521477        -0.121886        -1.123746
 C         3.634849         0.909332        -0.457894
 C         3.634115         2.016958        -1.376493
 C         2.299335         2.756944        -1.109119
 O         1.782398         2.415718         0.238857
 C         2.377091         1.243229         0.612717
 H        -0.561459        -0.005043         0.884965
 H        -0.311035         1.295169        -0.312717
 H        -0.284488        -0.333929        -1.028684
 H         2.411976        -0.511994        -2.177857
 H         4.653802         0.690392        -0.114562
 H         4.379947         2.782780        -1.067641
 H         3.620620         1.813224        -2.449515
 H         2.521795         3.847680        -0.952534
 H         1.690366         2.438289        -1.964179
 H         2.624775         1.139820         1.644785
