19
Iteration:  2584charge 0 multiplicity 1
 C        -0.053109        -0.070104        -0.245527
 C         1.416162         0.086866        -0.154436
 O         2.236174        -1.086587         0.196861
 C         2.572708        -0.310860        -1.051458
 C         3.387126         0.895549        -0.579445
 C         3.376337         2.068074        -1.607005
 C         2.992314         3.223693        -0.698554
 O         1.711542         2.557935        -0.041093
 C         2.111761         1.296214         0.429560
 H        -0.601637        -0.145914         0.751163
 H        -0.549943         0.623526        -0.862995
 H        -0.124008        -1.126909        -0.663076
 H         2.673147        -1.089309        -1.890615
 H         4.383716         0.568203        -0.332434
 H         4.354237         2.206924        -1.975537
 H         2.556098         1.849436        -2.447296
 H         3.613407         3.445959         0.204675
 H         2.792410         4.175895        -1.308490
 H         2.325342         1.128508         1.540961
