19
Iteration:  4581charge 0 multiplicity 1
 C        -0.138689        -0.033087        -0.084233
 C         1.398919         0.137653        -0.214658
 O         2.165450        -1.016425        -0.008391
 C         2.402019        -0.157036        -1.194955
 C         3.404257         0.817632        -0.616814
 C         3.770305         2.133006        -1.258989
 C         2.393808         2.943199        -1.104563
 O         1.993424         2.581975         0.235409
 C         2.356822         1.194479         0.478966
 H        -0.372619        -0.516093         0.938201
 H        -0.583733         1.006467        -0.218681
 H        -0.677353        -0.627589        -0.846042
 H         2.426693        -0.677963        -2.164306
 H         4.330424         0.373516        -0.144010
 H         4.611259         2.584836        -0.657408
 H         4.226754         2.257848        -2.241754
 H         2.164542         4.004919        -1.208062
 H         1.784116         2.489213        -2.005787
 H         2.733083         1.076006         1.486411
