19
Iteration:  2028charge 0 multiplicity 1
 C        -0.040656         0.198297        -0.372750
 C         1.433987         0.182027        -0.184317
 O         2.098093        -1.138529         0.058687
 C         2.643880        -0.196554        -0.998605
 C         3.510085         0.878268        -0.535930
 C         3.596887         2.025906        -1.526145
 C         2.339565         2.900732        -1.015105
 O         1.859339         2.511152         0.323159
 C         2.373739         1.243375         0.520483
 H        -0.500530         0.463934         0.547153
 H        -0.420820         0.948194        -1.011459
 H        -0.332853        -0.765930        -0.731129
 H         2.635909        -0.861607        -1.896810
 H         4.477766         0.618169        -0.022966
 H         4.604423         2.639528        -1.510029
 H         3.439400         1.621098        -2.540964
 H         2.632289         3.973773        -0.884872
 H         1.416143         2.874197        -1.629696
 H         2.671109         1.184221         1.557317
