19
Iteration:  3396charge 0 multiplicity 1
 C         0.018769         0.224184        -0.201351
 C         1.439452         0.170876        -0.125147
 O         2.158927        -1.111953        -0.124210
 C         2.421855        -0.186971        -1.111041
 C         3.535810         0.856528        -0.428569
 C         3.641052         2.059646        -1.280736
 C         2.240652         2.729073        -1.200808
 O         1.933014         2.527504         0.173969
 C         2.432170         1.269162         0.661674
 H        -0.437728         0.082242         0.794308
 H        -0.340506         1.218228        -0.425972
 H        -0.480853        -0.560737        -0.937613
 H         2.279184        -0.163167        -2.197117
 H         4.394472         0.234281        -0.419763
 H         4.275215         2.869951        -0.804454
 H         4.033623         2.044502        -2.310702
 H         2.165374         3.798919        -1.420874
 H         1.461223         2.326415        -1.933957
 H         2.659722         1.468943         1.723116
