19
Iteration:  2683charge 0 multiplicity 1
 C        -0.059057         0.066597        -0.197857
 C         1.411062         0.027420        -0.097200
 O         2.186074        -1.167797         0.085342
 C         2.522870        -0.193217        -1.048970
 C         3.471173         0.912197        -0.485845
 C         3.562627         2.035562        -1.511505
 C         2.641134         3.137453        -0.885379
 O         1.759272         2.468255         0.004185
 C         2.294572         1.320678         0.403950
 H        -0.471309        -0.208312         0.799680
 H        -0.526048         1.020108        -0.378942
 H        -0.390426        -0.652352        -1.015944
 H         2.490010        -0.559156        -2.155289
 H         4.322336         0.721617         0.143317
 H         4.566093         2.255893        -1.541821
 H         3.322519         1.591910        -2.477478
 H         3.275419         3.763345        -0.350970
 H         1.950288         3.811211        -1.453561
 H         2.431973         1.207407         1.497204
