19
Iteration:  2940charge 0 multiplicity 1
 C        -0.059146         0.016545        -0.224466
 C         1.438864         0.123543        -0.106964
 O         2.164188        -1.103133         0.082308
 C         2.573050        -0.259769        -1.070687
 C         3.452331         0.854406        -0.534020
 C         3.506433         2.025635        -1.582236
 C         2.615455         3.135236        -0.916358
 O         1.820444         2.507730         0.154401
 C         2.217420         1.257456         0.483407
 H        -0.511738        -0.408415         0.674250
 H        -0.355019         1.080402        -0.116846
 H        -0.341695        -0.188252        -1.305414
 H         2.809072        -0.933634        -1.945236
 H         4.459643         0.401507        -0.237243
 H         4.590550         2.352341        -1.596480
 H         3.153633         1.866627        -2.645700
 H         3.218555         4.072005        -0.527483
 H         1.918201         3.591076        -1.557693
 H         2.597347         1.295730         1.519169
