19
Iteration:  2729charge 0 multiplicity 1
 C        -0.020008         0.080556        -0.152206
 C         1.419461         0.063420        -0.182450
 O         2.188645        -1.148255         0.100569
 C         2.538607        -0.249892        -1.033754
 C         3.406527         0.883730        -0.520055
 C         3.585908         2.046643        -1.462658
 C         2.656739         3.135340        -0.903426
 O         1.661285         2.526257        -0.006362
 C         2.341927         1.207008         0.435842
 H        -0.407785        -0.522005         0.631732
 H        -0.459904         1.111441         0.037797
 H        -0.352109        -0.199207        -1.120746
 H         2.571216        -0.751524        -1.985236
 H         4.345265         0.459298        -0.048507
 H         4.544566         2.564281        -1.509208
 H         3.253776         1.925362        -2.522744
 H         3.266384         3.833725        -0.398239
 H         2.179358         3.708310        -1.667004
 H         2.534408         1.257982         1.525224
