19
Iteration:   644
 C        -0.167022         0.155598        -0.245079
 C         1.378448         0.238682        -0.200073
 O         2.029188        -1.058841         0.028507
 C         2.599527        -0.251008        -1.090436
 C         3.545637         0.881117        -0.577066
 C         3.634412         2.101320        -1.489069
 C         2.417276         2.828503        -1.068491
 O         1.997098         2.541546         0.345646
 C         2.384068         1.196522         0.516071
 H        -0.353833         0.217413         0.780190
 H        -0.634578         0.887104        -0.766273
 H        -0.361621        -0.840500        -0.546540
 H         2.581210        -0.844581        -1.998177
 H         4.436126         0.390039        -0.177269
 H         4.574899         2.569151        -1.154658
 H         3.640903         2.071736        -2.532677
 H         2.509886         3.920525        -1.002804
 H         1.517189         2.523806        -1.705417
 H         2.395902         1.022466         1.600090
