19
Iteration:  3232
 C        -0.179167         0.083981        -0.206082
 C         1.390302         0.172023        -0.252845
 O         2.200680        -1.120261         0.133291
 C         2.564891        -0.246404        -1.056485
 C         3.488365         0.879101        -0.561287
 C         3.603454         2.093854        -1.414470
 C         2.360330         3.023275        -1.065734
 O         1.970327         2.512035         0.245410
 C         2.365683         1.177557         0.442362
 H        -0.518621         0.126517         0.789954
 H        -0.570100         0.955050        -0.696479
 H        -0.510445        -0.872839        -0.700188
 H         2.741897        -0.602853        -2.103281
 H         4.389215         0.509811        -0.081753
 H         4.590934         2.663186        -1.365440
 H         3.536881         1.991468        -2.569076
 H         2.760243         4.011174        -0.985718
 H         1.640749         3.094787        -1.847077
 H         2.313362         1.095167         1.511425
