19
Iteration:  2875
 C        -0.091813        -0.021108        -0.278091
 C         1.385825         0.035727        -0.118526
 O         2.223729        -1.103217         0.204127
 C         2.472620        -0.279442        -1.013118
 C         3.456337         0.880614        -0.617419
 C         3.407558         2.094174        -1.584656
 C         2.805385         3.241742        -0.760942
 O         1.795978         2.491087         0.044597
 C         2.295828         1.275608         0.394530
 H        -0.626472        -0.087349         0.671748
 H        -0.414606         0.823770        -0.864051
 H        -0.353196        -0.913250        -0.926984
 H         2.364292        -0.841312        -1.997264
 H         4.409482         0.651600        -0.065414
 H         4.440370         2.453362        -1.979359
 H         2.905168         1.613413        -2.545411
 H         3.553761         3.678731        -0.065768
 H         2.312429         3.960940        -1.325576
 H         2.541513         1.170081         1.489222
