19
Iteration:  4386charge 0 multiplicity 1
 C        -0.039289         0.139407        -0.203688
 C         1.445396         0.109751        -0.243271
 O         2.131751        -1.074850         0.013509
 C         2.573707        -0.230546        -1.117711
 C         3.508028         0.894470        -0.486414
 C         3.535242         2.101127        -1.486947
 C         2.487020         3.049736        -0.950442
 O         1.852106         2.478267         0.265389
 C         2.320549         1.149459         0.494853
 H        -0.435412        -0.040023         0.758373
 H        -0.434157         1.076388        -0.598331
 H        -0.344388        -0.654608        -0.938790
 H         2.594056        -0.704793        -2.134214
 H         4.460923         0.380647        -0.209145
 H         4.518447         2.546059        -1.672682
 H         3.106019         1.730582        -2.468030
 H         2.932164         3.958735        -0.528109
 H         1.690509         3.280445        -1.716445
 H         2.434964         0.855535         1.603030
