19
Iteration:  1815charge 0 multiplicity 1
 C        -0.031082         0.023550        -0.216049
 C         1.413581         0.222791        -0.200627
 O         2.086493        -1.060928         0.014825
 C         2.577774        -0.209986        -1.152379
 C         3.440750         0.776952        -0.429359
 C         3.627154         2.061897        -1.392521
 C         2.377204         2.948735        -1.072424
 O         1.988826         2.635906         0.258305
 C         2.265146         1.233565         0.510613
 H        -0.465190        -0.098142         0.736605
 H        -0.576340         0.792019        -0.681374
 H         0.012548        -0.856181        -0.871713
 H         2.817043        -0.671858        -2.163375
 H         4.394334         0.547865         0.013484
 H         4.658362         2.446374        -1.324647
 H         3.520599         1.706764        -2.537065
 H         2.708826         3.951228        -1.205129
 H         1.624547         2.651337        -1.880879
 H         2.284667         1.094029         1.614259
