19
Iteration:  3236charge 0 multiplicity 1
 C        -0.206896         0.036552        -0.221012
 C         1.429219         0.171140        -0.273094
 O         2.187824        -1.108766         0.133496
 C         2.568818        -0.239316        -1.049097
 C         3.474242         0.888272        -0.572983
 C         3.560657         2.110906        -1.446978
 C         2.432178         3.022133        -1.074969
 O         1.976028         2.557176         0.261169
 C         2.345529         1.147422         0.467545
 H        -0.531109         0.093156         0.860824
 H        -0.563321         0.973725        -0.642214
 H        -0.461946        -0.931751        -0.669326
 H         2.664720        -0.645017        -2.064094
 H         4.353093         0.458903         0.024914
 H         4.508602         2.668312        -1.327367
 H         3.499744         1.897585        -2.473781
 H         2.732944         4.112447        -0.956218
 H         1.737621         3.051467        -1.960906
 H         2.429485         0.945091         1.574973
