19
Iteration:  4469
 C        -0.095076         0.105049        -0.367799
 C         1.351834         0.144038        -0.251838
 O         2.179890        -1.053857         0.088729
 C         2.492101        -0.301540        -1.078989
 C         3.495143         0.766141        -0.647463
 C         3.588276         2.181934        -1.353613
 C         2.262014         2.967068        -1.024247
 O         2.110955         2.608437         0.400450
 C         2.384152         1.205570         0.487275
 H        -0.599275        -0.219085         0.642517
 H        -0.520366         0.941514        -0.794936
 H        -0.360263        -0.813117        -0.965331
 H         2.405556        -0.858926        -1.995670
 H         4.457718         0.324287        -0.412545
 H         4.541731         2.631595        -1.025729
 H         3.626289         2.216125        -2.434580
 H         2.027793         4.027852        -1.063466
 H         1.529763         2.631338        -1.715155
 H         2.738222         0.877465         1.418952
