19
Iteration:  1020
 C        -0.082458         0.103465        -0.241526
 C         1.435464         0.223472        -0.011665
 O         2.231559        -1.032706        -0.023043
 C         2.389222        -0.172835        -1.115609
 C         3.457653         0.763305        -0.544328
 C         3.662633         2.059874        -1.329742
 C         2.374430         2.819552        -1.164831
 O         1.968895         2.579225         0.185514
 C         2.346615         1.237523         0.579610
 H        -0.662663        -0.548702         0.454476
 H        -0.667949         1.090731        -0.135455
 H        -0.134375        -0.157778        -1.360158
 H         2.350676        -0.392213        -2.274106
 H         4.339542         0.241290        -0.107598
 H         4.458295         2.566099        -0.870082
 H         3.957885         1.937343        -2.390859
 H         2.249984         3.977891        -1.097442
 H         1.619230         2.439147        -1.917615
 H         2.518780         1.137184         1.670147
