19
Iteration:   795charge 0 multiplicity 1
 C        -0.040125         0.082781        -0.175295
 C         1.337208         0.199897        -0.195441
 O         2.145450        -1.046950         0.098900
 C         2.345116        -0.189322        -1.128367
 C         3.503607         0.798588        -0.610618
 C         3.709801         2.091451        -1.296329
 C         2.463187         2.895405        -1.121857
 O         1.919304         2.541633         0.193685
 C         2.380723         1.247643         0.496248
 H        -0.408516        -0.767504         0.567102
 H        -0.437579         1.062716         0.185601
 H        -0.466306        -0.164858        -1.210664
 H         2.317941        -0.677082        -2.143084
 H         4.455685         0.312566        -0.308066
 H         4.666204         2.608398        -0.931829
 H         3.960444         1.848443        -2.345719
 H         2.405551         3.973001        -1.167901
 H         1.719473         2.639745        -1.870490
 H         2.588745         1.181079         1.556721
