19
Iteration:  1441
 C        -0.016888         0.182406        -0.467281
 C         1.500935         0.222955        -0.048578
 O         2.093391        -1.038191         0.090518
 C         2.427703        -0.219574        -1.070158
 C         3.498527         0.746628        -0.527205
 C         3.583186         2.144291        -1.375885
 C         2.197010         2.804709        -1.101947
 O         2.002311         2.557094         0.238307
 C         2.506408         1.216592         0.573003
 H        -0.590856        -0.166502         0.457239
 H        -0.370229         1.201600        -0.789829
 H         0.061449        -0.669785        -1.188680
 H         2.397665        -0.814364        -1.941712
 H         4.461674         0.495735        -0.049125
 H         4.468621         2.714412        -1.162745
 H         3.712267         1.752228        -2.305859
 H         2.184654         3.878194        -1.230182
 H         1.277838         2.605245        -1.828023
 H         2.738753         0.974136         1.633189
