19
Iteration:  3553charge 0 multiplicity 1
 C        -0.046345         0.199764        -0.257143
 C         1.485614         0.011026        -0.121336
 O         2.170871        -1.151622         0.214572
 C         2.635518        -0.299503        -1.041222
 C         3.436314         0.899724        -0.625640
 C         3.354793         2.089528        -1.593071
 C         2.692816         3.167748        -0.786179
 O         1.730684         2.461828         0.069210
 C         2.298280         1.184802         0.392237
 H        -0.334673         0.348042         0.785454
 H        -0.168021         1.088813        -0.905089
 H        -0.485832        -0.585185        -0.732694
 H         2.918236        -1.051508        -1.807652
 H         4.497547         0.627930        -0.325345
 H         4.424948         2.127476        -2.011444
 H         2.648250         1.898194        -2.376565
 H         3.361657         3.794470        -0.116959
 H         2.218581         3.877688        -1.465069
 H         2.435028         1.309727         1.435073
