19
Iteration:  1161
 C        -0.063136         0.069050        -0.279930
 C         1.411147         0.264321        -0.276319
 O         2.198487        -1.068545         0.040538
 C         2.520772        -0.228685        -1.090608
 C         3.480453         0.841566        -0.489477
 C         3.571610         1.966992        -1.419432
 C         2.392449         2.906915        -1.076247
 O         2.007177         2.602617         0.358800
 C         2.274740         1.281381         0.515213
 H        -0.596198        -0.255734         0.621743
 H        -0.788603         0.889709        -0.506241
 H        -0.287582        -0.757195        -1.038000
 H         2.638017        -0.697871        -2.171274
 H         4.378189         0.534279         0.045245
 H         4.508694         2.508159        -1.406579
 H         3.459880         1.631956        -2.516500
 H         2.648785         4.020333        -1.131724
 H         1.555384         2.652574        -1.872291
 H         2.376794         1.161795         1.627317
