19
Iteration:   818
 C        -0.107628         0.134341        -0.172714
 C         1.346703         0.048861         0.039343
 O         2.199700        -1.144271        -0.090327
 C         2.434561        -0.228615        -1.058137
 C         3.429638         0.850592        -0.498384
 C         3.681687         2.077728        -1.390622
 C         2.465867         2.906385        -1.160319
 O         1.966896         2.616140         0.163876
 C         2.349647         1.276327         0.510941
 H        -0.801850        -0.527664         0.546764
 H        -0.486678         1.184683        -0.192056
 H        -0.252385        -0.317520        -1.217623
 H         2.365068        -0.392120        -2.204256
 H         4.322838         0.407853         0.045499
 H         4.698338         2.537031        -1.091751
 H         3.871065         1.869515        -2.449158
 H         2.574674         4.012819        -1.083388
 H         1.574930         2.967122        -1.753251
 H         2.499279         1.361713         1.611845
