19
Iteration:  2111
 C        -0.094944         0.002123        -0.218398
 C         1.403686         0.236849        -0.215553
 O         2.131033        -1.047300         0.052027
 C         2.462949        -0.246958        -1.061976
 C         3.447437         0.814078        -0.585037
 C         3.694491         2.140103        -1.321723
 C         2.396059         2.845600        -1.112262
 O         1.969552         2.667793         0.307422
 C         2.393845         1.226747         0.400357
 H        -0.509869        -0.604424         0.672969
 H        -0.717543         0.962742        -0.513380
 H        -0.401117        -0.646794        -1.056714
 H         2.445073        -0.839846        -1.971928
 H         4.363642         0.532375        -0.143046
 H         4.416398         2.621693        -0.740532
 H         4.032716         2.073385        -2.381861
 H         2.339003         3.927755        -1.378119
 H         1.579979         2.299790        -1.706588
 H         2.636909         0.978549         1.477749
