19
Iteration:  1183charge 0 multiplicity 1
 C        -0.102636         0.120412        -0.320599
 C         1.398157         0.083908        -0.260019
 O         2.129947        -1.029055         0.058783
 C         2.653586        -0.292443        -1.009961
 C         3.448427         0.817764        -0.454201
 C         3.548672         2.074100        -1.442514
 C         2.295498         2.932018        -1.050508
 O         2.124316         2.605862         0.272395
 C         2.288154         1.232441         0.479862
 H        -0.578082        -0.290544         0.578486
 H        -0.398662         1.171073        -0.158545
 H        -0.675337        -0.427608        -1.136341
 H         2.854880        -0.530266        -2.105844
 H         4.383867         0.495132         0.023476
 H         4.366743         2.760277        -1.271797
 H         3.612602         1.778216        -2.550618
 H         2.468793         4.064602        -1.173672
 H         1.339847         2.625904        -1.715402
 H         2.440534         0.951774         1.542506
