19
Iteration:  3997charge 0 multiplicity 1
 C         0.007202         0.015604        -0.099055
 C         1.460872         0.147445        -0.083227
 O         2.127465        -1.073891        -0.027436
 C         2.407286        -0.182793        -1.164551
 C         3.417758         0.821674        -0.556366
 C         3.732163         2.126232        -1.321756
 C         2.368065         2.965922        -1.185456
 O         1.947766         2.569194         0.196845
 C         2.319033         1.204381         0.514843
 H        -0.398415        -0.745584         0.681791
 H        -0.359559         1.141182         0.053648
 H        -0.472225        -0.275319        -1.068540
 H         2.183286        -0.552610        -2.101148
 H         4.385548         0.356785        -0.307977
 H         4.358850         2.713036        -0.648747
 H         4.289276         1.904576        -2.234803
 H         2.463461         4.070409        -1.236460
 H         1.698091         2.602074        -2.059518
 H         2.333769         1.125479         1.587003
