19
Iteration:  4085charge 0 multiplicity 1
 C        -0.037959         0.212272        -0.312364
 C         1.455714         0.152125        -0.211382
 O         2.100049        -1.114729         0.061324
 C         2.603216        -0.202221        -1.088212
 C         3.497624         0.884750        -0.562217
 C         3.557937         2.142673        -1.477880
 C         2.322073         2.836391        -1.020978
 O         1.944470         2.492916         0.346067
 C         2.372964         1.178048         0.513473
 H        -0.436222         0.444196         0.714119
 H        -0.366733         1.091332        -0.970597
 H        -0.488873        -0.704675        -0.597309
 H         2.679097        -0.725413        -2.004744
 H         4.497269         0.577877        -0.202595
 H         4.464053         2.699584        -1.240961
 H         3.625880         1.944626        -2.536864
 H         2.412960         3.961097        -1.123983
 H         1.343135         2.662962        -1.557942
 H         2.533713         0.989468         1.554258
