19
Iteration:  4048
 C         0.069982         0.353247        -0.162052
 C         1.492260         0.095546        -0.161726
 O         2.124986        -1.196530        -0.139914
 C         2.557714        -0.075921        -1.093168
 C         3.466491         0.875679        -0.428968
 C         3.560717         2.113806        -1.339339
 C         2.211302         2.672473        -1.162141
 O         1.940991         2.520017         0.236138
 C         2.364459         1.215802         0.560406
 H        -0.158405         0.301294         0.840091
 H        -0.156095         1.339692        -0.534878
 H        -0.579659        -0.403058        -0.713294
 H         2.582304        -0.383262        -2.191522
 H         4.460137         0.510808        -0.156062
 H         4.187925         2.848338        -0.859941
 H         3.762644         1.967645        -2.405250
 H         2.339620         3.706774        -1.205418
 H         1.615836         2.237918        -1.934454
 H         2.449001         1.127962         1.693802
