19
Iteration:  4346charge 0 multiplicity 1
 C         0.005109         0.130474        -0.233272
 C         1.431000        -0.027522        -0.051278
 O         2.192363        -1.200487         0.106850
 C         2.415041        -0.248461        -1.192648
 C         3.408322         0.856024        -0.655596
 C         3.659971         2.252528        -1.378244
 C         2.499264         3.132385        -0.987526
 O         1.834919         2.518887         0.180599
 C         2.315287         1.109650         0.464248
 H        -0.699045        -0.118336         0.610549
 H        -0.089061         1.364854        -0.297176
 H        -0.447432        -0.368771        -1.055520
 H         2.331662        -0.829988        -2.171122
 H         4.352823         0.594745        -0.136448
 H         4.668366         2.777381        -1.197546
 H         3.641849         2.041532        -2.488605
 H         2.913598         4.113738        -0.642184
 H         1.700503         3.126364        -1.741291
 H         2.612373         1.176174         1.564212
