19
Iteration:  2577
 C        -0.083604        -0.079479        -0.274366
 C         1.399779         0.064459        -0.166189
 O         2.241658        -1.099003         0.223758
 C         2.540898        -0.268880        -0.977331
 C         3.375443         0.901411        -0.617863
 C         3.393960         2.086100        -1.613996
 C         2.922392         3.183214        -0.694658
 O         1.735198         2.580041        -0.054408
 C         2.186680         1.294162         0.417516
 H        -0.467797        -0.285208         0.688010
 H        -0.544024         0.749689        -0.840619
 H        -0.319054        -1.043685        -0.699263
 H         2.705666        -0.684387        -1.995663
 H         4.380407         0.683145        -0.162951
 H         4.456520         2.067489        -1.944829
 H         2.739215         1.666287        -2.428288
 H         3.681997         3.354578         0.144088
 H         2.600972         4.091142        -1.118451
 H         2.533624         0.984101         1.397325
