19
Iteration:   314charge 0 multiplicity 1
 C        -0.064617         0.285311        -0.211017
 C         1.439552         0.186606        -0.109007
 O         2.112843        -1.124620        -0.079154
 C         2.474390        -0.236859        -1.108003
 C         3.488756         0.770091        -0.546911
 C         3.589058         2.035434        -1.337256
 C         2.313356         2.836231        -1.141033
 O         2.017468         2.574433         0.298339
 C         2.444538         1.212432         0.533459
 H        -0.619040         0.401071         0.744698
 H        -0.387519         1.150449        -0.799795
 H        -0.497192        -0.597497        -0.687974
 H         2.364654        -0.394252        -2.138826
 H         4.469974         0.271198        -0.186151
 H         4.308142         2.767292        -0.996583
 H         3.784020         2.025508        -2.457288
 H         2.382417         3.927268        -1.160011
 H         1.397416         2.618190        -1.743397
 H         2.730767         1.002761         1.588805
