19
Iteration:  2145
 C        -0.071404        -0.037001        -0.167917
 C         1.363601         0.177612        -0.110908
 O         2.177152        -1.095309        -0.126216
 C         2.460903        -0.050311        -1.048488
 C         3.432634         0.898525        -0.392197
 C         3.656705         2.025833        -1.349870
 C         2.409117         2.868800        -1.169464
 O         2.033417         2.598172         0.173440
 C         2.308929         1.250780         0.522318
 H        -0.563422        -0.535515         0.758681
 H        -0.607260         1.020723        -0.131369
 H        -0.255954        -0.551061        -1.097344
 H         2.450360        -0.393515        -2.119431
 H         4.288870         0.440055         0.060123
 H         4.413289         2.637523        -0.956176
 H         3.912034         1.776154        -2.400202
 H         2.511367         3.973467        -1.402210
 H         1.577052         2.463870        -1.824615
 H         2.417476         0.962044         1.583758
