19
Iteration:  1584
 C        -0.119423        -0.141890        -0.044788
 C         1.398855         0.157679        -0.197600
 O         2.133154        -1.052985         0.063572
 C         2.484038        -0.252096        -1.110627
 C         3.412988         0.820527        -0.570898
 C         3.741559         2.127432        -1.380321
 C         2.650333         3.049976        -1.031362
 O         1.828918         2.565569         0.032017
 C         2.220654         1.316783         0.476803
 H        -0.316937        -0.589617         0.998560
 H        -0.718625         0.825247        -0.084898
 H        -0.510897        -0.758107        -0.957274
 H         2.593884        -0.755228        -2.024431
 H         4.257480         0.355148        -0.055667
 H         4.654778         2.620675        -1.008540
 H         3.953839         2.039273        -2.483083
 H         3.100508         3.943392        -0.637468
 H         2.068176         3.299451        -1.932468
 H         2.283014         1.324483         1.584058
