19
Iteration:  3556charge 0 multiplicity 1
 C        -0.018307         0.186953        -0.261079
 C         1.487004         0.032885        -0.107624
 O         2.171603        -1.150909         0.216887
 C         2.614852        -0.293748        -1.039815
 C         3.482112         0.866340        -0.641906
 C         3.341463         2.080720        -1.590368
 C         2.702014         3.177561        -0.773472
 O         1.713101         2.472565         0.054112
 C         2.280264         1.191795         0.401846
 H        -0.374695         0.374127         0.713712
 H        -0.153361         1.126958        -0.811515
 H        -0.525939        -0.656940        -0.760677
 H         2.915197        -1.037435        -1.813530
 H         4.509175         0.648202        -0.331321
 H         4.381621         2.109916        -2.014627
 H         2.622865         2.000669        -2.483210
 H         3.325881         3.762569        -0.094233
 H         2.251167         3.880055        -1.472640
 H         2.445050         1.171893         1.513094
