19
Iteration:  3280
 C        -0.086493        -0.145716        -0.362512
 C         1.330724         0.152894        -0.138118
 O         2.206789        -1.078888         0.072342
 C         2.409685        -0.263962        -1.043777
 C         3.385977         0.838250        -0.494060
 C         3.547871         2.070062        -1.461881
 C         2.507929         3.076392        -1.075665
 O         2.080791         2.685684         0.299040
 C         2.319035         1.266827         0.508683
 H        -0.437629        -0.498359         0.667264
 H        -0.799025         0.679069        -0.618272
 H        -0.063632        -1.058366        -0.931375
 H         2.229477        -0.678445        -2.032030
 H         4.503298         0.561465        -0.391258
 H         4.581858         2.433153        -1.347740
 H         3.557469         1.866128        -2.505971
 H         2.911766         4.117947        -1.246870
 H         1.594827         3.121708        -1.702592
 H         2.579826         1.261912         1.614809
