19
Iteration:  2784
 C        -0.028256        -0.138444        -0.137942
 C         1.401447         0.076668        -0.154397
 O         2.161958        -1.041024         0.103351
 C         2.543657        -0.286337        -1.088375
 C         3.369849         0.835471        -0.606513
 C         3.568458         1.984968        -1.573954
 C         2.801967         3.220684        -0.740246
 O         1.766285         2.592591        -0.011335
 C         2.210026         1.313323         0.482801
 H        -0.582720        -0.302833         0.791352
 H        -0.507485         0.706124        -0.831541
 H        -0.218299        -1.038032        -0.698619
 H         2.479925        -0.767018        -2.009546
 H         4.296124         0.382143        -0.049178
 H         4.491445         2.477642        -1.798412
 H         2.994948         2.125841        -2.511680
 H         3.509293         3.743527        -0.117665
 H         2.269840         3.892939        -1.413058
 H         2.237973         1.324449         1.615213
