19
Iteration:  2965
 C        -0.078191         0.093833        -0.281391
 C         1.443619         0.139675        -0.102066
 O         2.226536        -1.174584         0.122737
 C         2.474598        -0.332556        -1.062013
 C         3.439943         0.863422        -0.609138
 C         3.566766         2.066061        -1.468866
 C         2.569620         3.206817        -0.880799
 O         1.816782         2.502413         0.116655
 C         2.316999         1.252173         0.480544
 H        -0.375765        -0.291858         0.687330
 H        -0.504038         1.027860        -0.401222
 H        -0.361167        -0.478428        -1.146335
 H         2.285579        -0.873162        -2.014932
 H         4.351031         0.438675        -0.356291
 H         4.643609         2.311485        -1.522620
 H         3.208465         1.757494        -2.594024
 H         2.913591         4.197314        -0.561559
 H         1.867003         3.252152        -1.666810
 H         2.710394         1.381395         1.466405
