19
Iteration:  3038charge 0 multiplicity 1
 C        -0.092169        -0.005956        -0.130856
 C         1.389473         0.058452        -0.229383
 O         2.147796        -1.156845         0.019761
 C         2.542079        -0.217311        -1.060106
 C         3.406703         0.874109        -0.531125
 C         3.619639         2.070027        -1.505987
 C         2.604533         3.115974        -0.961800
 O         1.821895         2.536650         0.152353
 C         2.326982         1.324950         0.485162
 H        -0.222348         0.233224         0.960910
 H        -0.561946         0.691781        -0.810145
 H        -0.531548        -1.069455        -0.378262
 H         2.670673        -0.510388        -2.118975
 H         4.316333         0.602128         0.109217
 H         4.703393         2.294021        -1.508699
 H         3.433159         1.817321        -2.471216
 H         3.098129         4.027388        -0.522503
 H         1.914068         3.344177        -1.770806
 H         2.326251         1.292055         1.591850
