19
Iteration:  2834
 C        -0.025719        -0.073203        -0.234911
 C         1.402569         0.060320        -0.133194
 O         2.241250        -1.113213         0.221950
 C         2.472575        -0.309653        -1.060955
 C         3.422753         0.901683        -0.598182
 C         3.443704         2.085809        -1.582108
 C         2.858120         3.206334        -0.662178
 O         1.767641         2.598573        -0.026264
 C         2.175103         1.232394         0.274208
 H        -0.452860         0.286631         0.715684
 H        -0.411854         0.522148        -0.962524
 H        -0.439888        -1.097384        -0.224510
 H         2.475198        -1.018756        -1.955262
 H         4.321551         0.604403        -0.201103
 H         4.418866         2.375242        -1.985987
 H         2.729911         2.010109        -2.371861
 H         3.673110         3.265463         0.057683
 H         2.498768         4.239649        -0.961290
 H         2.284690         1.248196         1.349776
