19
Iteration:  3536charge 0 multiplicity 1
 C        -0.062734         0.166774        -0.250771
 C         1.426737         0.052232        -0.216772
 O         2.231158        -1.139446         0.146624
 C         2.616591        -0.421717        -0.976788
 C         3.467317         0.893655        -0.546753
 C         3.383644         2.051603        -1.619764
 C         2.629989         3.163478        -0.835753
 O         1.814217         2.512549         0.096736
 C         2.275831         1.251139         0.459889
 H        -0.478418         0.479643         0.733212
 H        -0.361377         1.060485        -0.820294
 H        -0.689414        -0.792688        -0.589425
 H         2.583157        -0.817846        -2.002252
 H         4.359081         0.850696         0.024645
 H         4.338027         2.480728        -1.886722
 H         2.953258         1.789725        -2.662182
 H         3.369759         3.765888        -0.326322
 H         1.962649         3.869121        -1.378687
 H         2.621413         0.894548         1.485479
