19
Iteration:  2450
 C        -0.155851         0.054700        -0.219972
 C         1.416085         0.124223        -0.111837
 O         2.180599        -1.125000         0.043235
 C         2.489103        -0.242388        -1.098611
 C         3.454538         0.856593        -0.533685
 C         3.711048         2.163253        -1.298561
 C         2.431357         2.946608        -1.104520
 O         1.889876         2.538205         0.147553
 C         2.362007         1.228910         0.462357
 H        -0.520170         0.168486         0.818202
 H        -0.489616         1.032583        -0.652535
 H        -0.565517        -0.705395        -0.804510
 H         2.227368        -0.689756        -2.003482
 H         4.330930         0.304742        -0.172185
 H         4.614514         2.827528        -1.099044
 H         3.852425         2.025443        -2.357215
 H         2.725970         3.981067        -0.821103
 H         1.883276         3.028511        -2.054371
 H         2.547156         1.271607         1.582457
