19
Iteration:  3579charge 0 multiplicity 1
 C        -0.019835         0.091541        -0.303242
 C         1.499608         0.152370        -0.074640
 O         2.242212        -1.084552         0.186493
 C         2.523800        -0.402469        -1.018322
 C         3.396361         0.878158        -0.616577
 C         3.372307         2.066368        -1.600024
 C         2.720693         3.120776        -0.713085
 O         1.711886         2.487956         0.018817
 C         2.336093         1.273300         0.411260
 H        -0.454776        -0.091765         0.640172
 H        -0.400705         1.000721        -0.749963
 H        -0.134325        -0.804851        -1.028537
 H         2.236583        -0.857529        -1.986892
 H         4.330415         0.507215        -0.276287
 H         4.374320         2.245276        -2.072235
 H         2.620704         1.759518        -2.464213
 H         3.516117         3.398678        -0.010179
 H         2.426679         4.064202        -1.189977
 H         2.499863         1.605237         1.460619
