19
Iteration:   163charge 0 multiplicity 1
 C        -0.077399         0.261827        -0.149691
 C         1.424119         0.164665        -0.107982
 O         2.087802        -1.166164        -0.042846
 C         2.487088        -0.207171        -1.089540
 C         3.493100         0.829516        -0.526694
 C         3.660910         2.102563        -1.350377
 C         2.393239         2.931713        -1.125122
 O         1.946602         2.494321         0.200042
 C         2.403886         1.175774         0.498804
 H        -0.616055         0.137216         0.821880
 H        -0.374484         1.269618        -0.486682
 H        -0.593796        -0.395638        -0.863554
 H         2.344402        -0.642390        -2.090309
 H         4.450737         0.484426        -0.199910
 H         4.598864         2.590044        -1.049504
 H         3.750567         1.789457        -2.403396
 H         2.477099         4.024061        -1.137579
 H         1.608355         2.619815        -1.889861
 H         2.619763         1.205002         1.622185
