19
Iteration:  1284charge 0 multiplicity 1
 C        -0.041636         0.106531        -0.067866
 C         1.426880         0.177989        -0.258693
 O         2.054321        -1.045101        -0.087215
 C         2.628597        -0.181794        -1.109747
 C         3.482194         0.795294        -0.404317
 C         3.627616         2.121626        -1.281973
 C         2.341309         2.847785        -1.277840
 O         1.958961         2.582022         0.190046
 C         2.352329         1.200355         0.553931
 H        -0.194043         0.049515         1.011160
 H        -0.727909         0.850887        -0.417290
 H        -0.630527        -0.732148        -0.464851
 H         2.593312        -0.572848        -2.088091
 H         4.381134         0.345073         0.090726
 H         4.308142         2.806651        -0.771865
 H         3.998784         2.073622        -2.273587
 H         2.427411         3.997207        -1.383936
 H         1.504662         2.481931        -2.038877
 H         2.554336         0.745118         1.474018
