19
Iteration:  1632
 C        -0.034060         0.006657        -0.073990
 C         1.457960         0.112832        -0.101758
 O         2.174867        -1.155266        -0.074189
 C         2.469093        -0.199177        -1.025270
 C         3.376329         0.820626        -0.508669
 C         3.759225         2.033324        -1.334797
 C         2.558274         3.102372        -1.137522
 O         1.775466         2.597784         0.052137
 C         2.232014         1.261526         0.512113
 H        -0.470558        -0.157922         0.960642
 H        -0.604478         0.943708        -0.346001
 H        -0.401957        -0.667822        -0.815887
 H         2.466356        -0.511409        -2.129856
 H         4.322145         0.441607        -0.108889
 H         4.704199         2.408878        -0.945041
 H         4.055663         1.802274        -2.283094
 H         2.867805         4.156661        -0.925076
 H         1.848755         3.022438        -2.007401
 H         2.408168         1.266494         1.615794
