19
Iteration:  1725
 C        -0.035436         0.176605        -0.337715
 C         1.467279         0.202364        -0.204913
 O         2.043285        -1.085409         0.000075
 C         2.598705        -0.200366        -1.035346
 C         3.589080         0.925396        -0.417199
 C         3.539475         2.025228        -1.444971
 C         2.266530         2.777270        -1.073642
 O         1.966190         2.565614         0.285699
 C         2.415547         1.226597         0.542291
 H        -0.563855         0.217271         0.535085
 H        -0.301738         1.164574        -0.601625
 H        -0.362061        -0.536846        -1.117389
 H         2.623719        -0.586282        -2.049338
 H         4.474444         0.563553         0.149091
 H         4.507227         2.532213        -1.627010
 H         3.519967         1.456962        -2.464088
 H         2.269464         3.862089        -1.125557
 H         1.359092         2.378124        -1.589819
 H         2.464791         1.115415         1.613523
