19
Iteration:  1032
 C        -0.011155         0.111187        -0.210081
 C         1.426729         0.140353        -0.054324
 O         2.167866        -1.143808        -0.100882
 C         2.410406        -0.144512        -1.093545
 C         3.398847         0.875009        -0.438849
 C         3.695130         2.079240        -1.294741
 C         2.361034         2.808735        -1.198654
 O         1.982625         2.613543         0.220617
 C         2.349256         1.286373         0.537751
 H        -0.481630        -0.574169         0.500377
 H        -0.355923         1.163472        -0.145822
 H        -0.312218        -0.370916        -1.216686
 H         1.995741        -0.449652        -2.139600
 H         4.335662         0.379471        -0.101294
 H         4.503736         2.696218        -1.025776
 H         3.812449         1.663752        -2.295365
 H         2.572123         3.903500        -1.516800
 H         1.592810         2.342581        -1.901730
 H         2.603382         1.301454         1.590923
