19
Iteration:  2221
 C        -0.022447         0.234614        -0.195279
 C         1.391510         0.101616        -0.123958
 O         2.216376        -1.145880         0.036233
 C         2.526962        -0.232077        -1.089686
 C         3.423080         0.806285        -0.651498
 C         3.713077         2.182981        -1.247298
 C         2.372962         2.851816        -1.062997
 O         1.868778         2.586186         0.202373
 C         2.290195         1.182700         0.388048
 H        -0.426277         0.204396         0.847413
 H        -0.391128         1.151673        -0.763237
 H        -0.470583        -0.582289        -0.677182
 H         2.216087        -0.705266        -2.052716
 H         4.331775         0.478581        -0.203348
 H         4.479324         2.715271        -0.755175
 H         4.109137         2.176283        -2.298582
 H         2.532372         3.970319        -1.021894
 H         1.646925         2.587701        -1.901559
 H         2.499978         0.865201         1.431011
