19
Iteration:  3037charge 0 multiplicity 1
 C        -0.093657        -0.006088        -0.125224
 C         1.397088         0.054825        -0.226024
 O         2.146459        -1.152689         0.016258
 C         2.542884        -0.220813        -1.067376
 C         3.414703         0.873664        -0.528336
 C         3.616278         2.055369        -1.499018
 C         2.600161         3.121648        -0.963902
 O         1.822461         2.536958         0.149467
 C         2.329918         1.331416         0.483535
 H        -0.228071         0.246674         0.952484
 H        -0.596548         0.698070        -0.827583
 H        -0.528401        -1.053472        -0.389697
 H         2.649333        -0.518250        -2.123423
 H         4.344352         0.653170         0.122229
 H         4.700026         2.293782        -1.459472
 H         3.410951         1.831071        -2.474353
 H         3.118227         3.998525        -0.523172
 H         1.871533         3.381402        -1.777741
 H         2.296215         1.242228         1.591173
