19
Iteration:  1095charge 0 multiplicity 1
 C        -0.040166         0.181136        -0.129126
 C         1.458249         0.078021        -0.160360
 O         2.198712        -1.038403         0.081458
 C         2.476300        -0.202887        -1.241601
 C         3.491277         0.769773        -0.632939
 C         3.720957         2.153205        -1.224081
 C         2.434796         2.851656        -1.135562
 O         1.827009         2.559968         0.237001
 C         2.234856         1.223808         0.472521
 H        -0.396370         0.517603         0.877740
 H        -0.328857         0.992227        -0.908718
 H        -0.537675        -0.721893        -0.620056
 H         2.412903        -0.834908        -2.227688
 H         4.392879         0.176188        -0.403844
 H         4.617200         2.605085        -0.819996
 H         3.948991         2.086551        -2.356452
 H         2.477545         3.963255        -1.242735
 H         1.616906         2.583366        -1.743815
 H         2.303130         1.077088         1.598766
