19
Iteration:  1790
 C        -0.117045         0.090668        -0.344081
 C         1.380058         0.170582        -0.252831
 O         2.156306        -1.075605         0.162828
 C         2.524800        -0.353700        -1.054698
 C         3.519790         0.859340        -0.533431
 C         3.596731         2.119233        -1.457897
 C         2.364874         2.973234        -1.026608
 O         1.983593         2.580145         0.296332
 C         2.340299         1.206874         0.472135
 H        -0.580173        -0.110318         0.673299
 H        -0.439558         1.134065        -0.632435
 H        -0.429041        -0.670339        -1.168682
 H         2.594444        -1.063230        -1.931827
 H         4.604133         0.836919        -0.203639
 H         4.483440         2.659013        -1.105604
 H         3.731575         1.985723        -2.576727
 H         2.803938         3.977938        -1.065803
 H         1.548886         2.848304        -1.847517
 H         2.363767         0.979447         1.521643
