19
Iteration:  2570charge 0 multiplicity 1
 C        -0.096578        -0.122247        -0.296166
 C         1.378045         0.061103        -0.156404
 O         2.239946        -1.081633         0.218281
 C         2.538772        -0.277784        -0.963362
 C         3.367829         0.917460        -0.596934
 C         3.433126         2.041757        -1.604756
 C         2.847447         3.143771        -0.682472
 O         1.764253         2.588734        -0.039966
 C         2.269069         1.271326         0.367018
 H        -0.478283        -0.124181         0.791686
 H        -0.556187         0.850979        -0.712683
 H        -0.436137        -0.939824        -0.960670
 H         2.530720        -0.659855        -1.949654
 H         4.308109         0.779826        -0.054880
 H         4.469207         2.229623        -2.047944
 H         2.821784         1.938652        -2.468188
 H         3.698693         3.362527        -0.061835
 H         2.441160         4.122042        -1.046265
 H         2.508689         1.344653         1.481247
