19
Iteration:   830charge 0 multiplicity 1
 C        -0.123132         0.086320        -0.186609
 C         1.413181         0.092305        -0.046593
 O         2.150603        -1.228595        -0.107773
 C         2.443120        -0.147804        -1.034889
 C         3.452012         0.859763        -0.423656
 C         3.630938         2.027019        -1.371143
 C         2.396461         3.012969        -1.151653
 O         1.981277         2.596372         0.152664
 C         2.385602         1.308233         0.529379
 H        -0.762990        -0.237216         0.737191
 H        -0.250157         1.194763        -0.313094
 H        -0.480653        -0.401078        -1.138352
 H         2.403926        -0.583296        -2.092774
 H         4.461695         0.502892        -0.043194
 H         4.504032         2.698746        -1.132169
 H         3.644907         1.583028        -2.350196
 H         2.840401         4.039780        -1.156011
 H         1.828027         2.640095        -1.978483
 H         2.754489         1.254312         1.601632
