19
Iteration:  3606
 C        -0.115438        -0.160791        -0.249537
 C         1.368683         0.012705        -0.089315
 O         2.242093        -1.078622         0.185830
 C         2.503172        -0.294543        -1.009444
 C         3.423598         0.908852        -0.613715
 C         3.423820         2.106666        -1.637952
 C         2.862263         3.236718        -0.768531
 O         1.850036         2.588394         0.003731
 C         2.203332         1.241719         0.460761
 H        -0.660693        -0.445417         0.754978
 H        -0.459258         0.925236        -0.429602
 H        -0.332892        -0.838254        -1.066975
 H         2.189824        -0.708594        -1.975727
 H         4.374498         0.391815        -0.315472
 H         4.390560         2.360889        -2.115354
 H         2.809804         1.810531        -2.435877
 H         3.734464         3.604425        -0.164525
 H         2.426805         4.091356        -1.295891
 H         2.252540         1.480098         1.534730
