19
Iteration:  1300charge 0 multiplicity 1
 C        -0.131248         0.022321        -0.062278
 C         1.374183         0.211078        -0.197067
 O         2.125104        -1.048033        -0.041579
 C         2.497272        -0.171259        -1.115708
 C         3.521123         0.846975        -0.518512
 C         3.760764         2.144239        -1.273182
 C         2.363210         2.836584        -1.144846
 O         1.968321         2.540244         0.149988
 C         2.278541         1.215992         0.458858
 H        -0.376076         0.076740         1.053197
 H        -0.679625         0.904392        -0.540046
 H        -0.295464        -0.988001        -0.467558
 H         2.501798        -0.606739        -2.168310
 H         4.479982         0.467727        -0.168154
 H         4.590820         2.727553        -0.794719
 H         4.229673         1.912685        -2.286674
 H         2.417063         3.890716        -1.212892
 H         1.666894         2.522416        -1.874749
 H         2.236566         1.392682         1.583000
