19
Iteration:  2023charge 0 multiplicity 1
 C        -0.062756         0.189421        -0.388790
 C         1.442892         0.154191        -0.183664
 O         2.106558        -1.101966         0.067989
 C         2.610936        -0.267221        -1.024762
 C         3.527429         0.894770        -0.511170
 C         3.601327         2.048421        -1.536106
 C         2.316231         2.920293        -0.981457
 O         1.891638         2.525230         0.317597
 C         2.377147         1.236798         0.509791
 H        -0.527039         0.446737         0.629463
 H        -0.430396         1.073703        -1.036472
 H        -0.309758        -0.865268        -0.716962
 H         2.655701        -0.830963        -1.930597
 H         4.473836         0.636380        -0.083369
 H         4.518679         2.490141        -1.396272
 H         3.448621         1.638559        -2.546217
 H         2.571235         3.976273        -0.945418
 H         1.520132         2.783807        -1.730664
 H         2.582397         1.202245         1.618841
