19
Iteration:  1468
 C        -0.069303         0.225933        -0.423484
 C         1.421601         0.172920        -0.128356
 O         2.137427        -1.048173         0.070350
 C         2.602534        -0.253764        -1.015966
 C         3.505065         0.824498        -0.624015
 C         3.554549         2.108430        -1.343285
 C         2.233786         2.702430        -1.094439
 O         2.075107         2.612747         0.299396
 C         2.304345         1.238701         0.576379
 H        -0.478017         0.258808         0.571043
 H        -0.207970         1.179094        -0.912084
 H        -0.339302        -0.627297        -1.040188
 H         2.437715        -0.720317        -2.064889
 H         4.508888         0.701334        -0.199545
 H         4.516696         2.625866        -1.129444
 H         3.743552         1.834741        -2.500230
 H         2.079714         3.805718        -1.356303
 H         1.404491         2.219363        -1.618946
 H         2.541091         0.908333         1.613739
