19
Iteration:  4337
 C        -0.037529         0.098691        -0.237588
 C         1.449298        -0.043612        -0.054928
 O         2.193090        -1.233874         0.073235
 C         2.359548        -0.206976        -1.157601
 C         3.389029         0.992918        -0.572427
 C         3.715571         2.204391        -1.401637
 C         2.488638         3.089475        -0.999341
 O         1.898312         2.498124         0.187559
 C         2.340501         1.184596         0.409696
 H        -0.536289        -0.213787         0.801734
 H        -0.273397         1.205035        -0.307995
 H        -0.500580        -0.383381        -1.067569
 H         2.220504        -0.722792        -2.116559
 H         4.147389         0.432915        -0.030610
 H         4.645477         2.698364        -1.072230
 H         3.734135         2.081146        -2.451775
 H         2.663067         4.184909        -0.723343
 H         1.671283         3.064278        -1.842310
 H         2.541078         1.027283         1.434463
