19
Iteration:  4719charge 0 multiplicity 1
 C         0.010765         0.183253        -0.339449
 C         1.480964        -0.006227        -0.121815
 O         2.201751        -1.176523         0.088910
 C         2.560413        -0.317944        -1.025064
 C         3.492431         0.846409        -0.582772
 C         3.279772         1.960078        -1.587511
 C         2.643778         3.240308        -0.836071
 O         1.786144         2.563133         0.200929
 C         2.275546         1.232728         0.503180
 H        -0.575133         0.022250         0.625861
 H         0.022170         1.160695        -0.702507
 H        -0.202618        -0.569142        -1.128817
 H         2.544871        -0.705301        -2.084230
 H         4.477225         0.647244        -0.190336
 H         4.230321         2.217393        -2.118591
 H         2.643258         1.738707        -2.443510
 H         3.539519         3.736673        -0.300399
 H         2.226472         4.049905        -1.400782
 H         2.589481         1.288623         1.616225
