19
Iteration:  3570charge 0 multiplicity 1
 C         0.041090         0.141314        -0.271664
 C         1.487049         0.106101        -0.143548
 O         2.218586        -1.090739         0.194516
 C         2.538552        -0.410382        -0.994737
 C         3.487889         0.802732        -0.647529
 C         3.354858         2.040210        -1.616143
 C         2.722971         3.178197        -0.698038
 O         1.680712         2.507085        -0.012843
 C         2.289266         1.273186         0.466339
 H        -0.505245         0.040535         0.714670
 H        -0.214821         1.047106        -0.839017
 H        -0.350279        -0.758194        -0.969217
 H         2.223753        -0.771430        -1.950147
 H         4.478925         0.629329        -0.282790
 H         4.167484         2.588722        -1.967347
 H         2.672893         1.669024        -2.466564
 H         3.529551         3.546397        -0.075760
 H         2.192050         4.038920        -1.169374
 H         2.586436         1.171007         1.592285
