19
Iteration:  3968charge 0 multiplicity 1
 C        -0.228332        -0.139582        -0.089003
 C         1.352358         0.118771        -0.192002
 O         2.201099        -1.122829        -0.033115
 C         2.537081        -0.230808        -1.050045
 C         3.367160         0.877673        -0.592502
 C         3.693710         2.080826        -1.428492
 C         2.587790         3.058230        -1.057279
 O         1.920068         2.634999         0.200755
 C         2.309522         1.332484         0.458204
 H        -0.338188        -0.757968         0.886346
 H        -0.557249         0.815270         0.211182
 H        -0.967252        -0.547475        -0.697290
 H         2.534257        -0.599046        -2.081486
 H         4.292403         0.471618        -0.162598
 H         4.727673         2.483123        -1.039054
 H         3.960677         1.859470        -2.509189
 H         2.816349         4.171722        -0.920569
 H         1.939865         3.042603        -1.881799
 H         2.453648         1.143375         1.549719
