19
Iteration:  1438charge 0 multiplicity 1
 C        -0.014690         0.171402        -0.449634
 C         1.502039         0.207022        -0.046869
 O         2.083509        -1.040467         0.075230
 C         2.454655        -0.232117        -1.029590
 C         3.486743         0.778123        -0.543898
 C         3.587161         2.142458        -1.354845
 C         2.195676         2.831528        -1.107550
 O         2.015445         2.543834         0.222834
 C         2.468424         1.203244         0.578379
 H        -0.643855        -0.166433         0.382337
 H        -0.384994         1.161575        -0.721444
 H        -0.054023        -0.615544        -1.166852
 H         2.403377        -0.761728        -2.057693
 H         4.521845         0.594262        -0.098439
 H         4.541864         2.691092        -1.130883
 H         3.584154         1.660773        -2.395293
 H         2.286413         3.916736        -1.271656
 H         1.404844         2.613001        -1.805806
 H         2.831618         1.080229         1.585149
