19
Iteration:   504
 C        -0.044641         0.178909        -0.209986
 C         1.442254         0.196355         0.016622
 O         2.085665        -1.092332        -0.090266
 C         2.364120        -0.064408        -1.151221
 C         3.532939         0.785789        -0.558199
 C         3.697976         2.037778        -1.342421
 C         2.350843         2.819977        -1.136926
 O         1.944370         2.539908         0.228082
 C         2.456086         1.206964         0.600058
 H        -0.652213         0.076764         0.707896
 H        -0.495867         1.019720        -0.799050
 H        -0.295079        -0.792734        -0.753937
 H         1.896383        -0.237980        -2.149107
 H         4.342699         0.122093        -0.300236
 H         4.539629         2.679683        -1.014019
 H         3.904159         1.915588        -2.388762
 H         2.566443         3.901532        -1.209923
 H         1.707324         2.501080        -1.973094
 H         2.646976         1.162379         1.694536
