19
Iteration:  1237
 C        -0.000630         0.306836        -0.318028
 C         1.419148         0.105003         0.007074
 O         2.207999        -1.083826         0.017465
 C         2.456394        -0.148867        -1.079421
 C         3.471166         0.904873        -0.510277
 C         3.577047         2.061868        -1.359159
 C         2.282619         2.794636        -1.133250
 O         1.913984         2.493081         0.203910
 C         2.437743         1.141358         0.542366
 H        -0.758302        -0.086645         0.301529
 H        -0.321596         1.293163        -0.486592
 H        -0.237505        -0.075044        -1.288194
 H         2.657609        -0.616476        -2.048013
 H         4.415851         0.457137        -0.294820
 H         4.293007         2.812905        -1.015103
 H         3.965648         1.723621        -2.399448
 H         2.413875         3.901955        -1.239982
 H         1.391508         2.486856        -1.826569
 H         2.740794         1.007201         1.602825
