19
Iteration:  4304
 C        -0.076920        -0.024332        -0.098856
 C         1.435692         0.230542        -0.203473
 O         2.118421        -1.000514        -0.131207
 C         2.490276        -0.140789        -1.232885
 C         3.503912         0.786672        -0.459060
 C         3.647174         2.050972        -1.273157
 C         2.357186         2.882854        -1.096341
 O         1.930701         2.619045         0.255036
 C         2.366267         1.236071         0.511077
 H        -0.230795        -0.457536         0.968679
 H        -0.725802         0.861334        -0.339783
 H        -0.284752        -0.841214        -0.735388
 H         2.448012        -0.654966        -2.230372
 H         4.398462         0.277532        -0.066249
 H         4.469093         2.588831        -0.771228
 H         3.939807         1.871956        -2.289797
 H         2.656657         3.964183        -1.255562
 H         1.579957         2.673412        -1.937113
 H         2.512323         1.011737         1.534667
