19
Iteration:  3177charge 0 multiplicity 1
 C        -0.049782         0.251975        -0.219711
 C         1.428416         0.155536         0.006515
 O         2.157508        -1.072230        -0.095270
 C         2.527387        -0.219687        -1.059838
 C         3.533075         0.843981        -0.517216
 C         3.630027         2.155318        -1.343897
 C         2.193425         2.754453        -1.220651
 O         1.956865         2.510370         0.216333
 C         2.438911         1.144069         0.582017
 H        -0.680030         0.215632         0.619312
 H        -0.174289         1.227473        -0.669531
 H        -0.446204        -0.385818        -0.997249
 H         2.381671        -0.479239        -2.129337
 H         4.384549         0.532820         0.081778
 H         4.338645         2.838102        -0.790075
 H         3.865956         2.198404        -2.495190
 H         2.202041         3.798361        -1.388419
 H         1.584540         2.178537        -1.909531
 H         2.534016         1.275909         1.647741
