19
Iteration:  1432
 C         0.003747         0.160151        -0.397140
 C         1.443761         0.186780        -0.051258
 O         2.079531        -1.071911         0.063128
 C         2.528852        -0.257577        -1.009411
 C         3.490842         0.855181        -0.544016
 C         3.575360         2.099581        -1.369982
 C         2.249039         2.880239        -1.123645
 O         2.019585         2.528354         0.236291
 C         2.410322         1.206237         0.557016
 H        -0.722920        -0.175802         0.384842
 H        -0.399686         1.145779        -0.724584
 H        -0.236510        -0.531544        -1.268578
 H         2.373342        -0.539145        -2.005648
 H         4.492419         0.568113        -0.278129
 H         4.471641         2.641119        -1.121371
 H         3.545433         1.800301        -2.404416
 H         2.422857         3.957610        -1.222473
 H         1.454350         2.437921        -1.842415
 H         2.826620         1.269729         1.595108
