19
Iteration:  4939charge 0 multiplicity 1
 C        -0.032715        -0.049775        -0.158981
 C         1.433495         0.131278        -0.087221
 O         2.167434        -1.103535        -0.066237
 C         2.364079        -0.120608        -1.133236
 C         3.460511         0.791695        -0.521869
 C         3.621050         2.052229        -1.410833
 C         2.521573         3.099693        -1.037584
 O         1.902484         2.584606         0.201419
 C         2.339981         1.210931         0.515123
 H        -0.533616        -0.636943         0.769304
 H        -0.424336         0.941069        -0.264382
 H        -0.326340        -0.564366        -1.039835
 H         2.419380        -0.279887        -2.203027
 H         4.345617         0.275924        -0.145481
 H         4.618597         2.538151        -1.253601
 H         3.454224         1.712385        -2.377562
 H         2.975532         4.114066        -0.914143
 H         1.669663         3.113053        -1.725330
 H         2.420189         1.150203         1.636098
