19
Iteration:  3007
 C        -0.055543         0.062901        -0.169771
 C         1.422184         0.111338        -0.180596
 O         2.208723        -1.136379         0.026548
 C         2.494279        -0.251972        -1.062963
 C         3.416165         0.788618        -0.539777
 C         3.612506         2.084346        -1.470471
 C         2.576133         3.128532        -0.950037
 O         1.789908         2.525335         0.125702
 C         2.335658         1.276751         0.501645
 H        -0.422178         0.229561         0.861724
 H        -0.502108         0.815893        -0.743262
 H        -0.396176        -0.931353        -0.597268
 H         2.622239        -0.614845        -2.098693
 H         4.297054         0.473795        -0.012306
 H         4.672965         2.363846        -1.579405
 H         3.113897         1.871971        -2.424721
 H         2.981805         4.117753        -0.586058
 H         1.923742         3.348672        -1.734872
 H         2.346197         1.136790         1.571261
