19
Iteration:  3618
 C        -0.128622        -0.191763        -0.198662
 C         1.387695         0.107470        -0.147367
 O         2.258812        -1.117851         0.155486
 C         2.444879        -0.360223        -1.049686
 C         3.375568         0.838142        -0.564317
 C         3.463093         2.103197        -1.601345
 C         2.869170         3.216619        -0.803999
 O         1.854802         2.670246         0.051121
 C         2.219683         1.353522         0.383300
 H        -0.391067        -0.707823         0.828246
 H        -0.861369         0.657774        -0.412890
 H        -0.444897        -0.922611        -0.893400
 H         2.511867        -0.933323        -2.024752
 H         4.404435         0.747369        -0.073639
 H         4.532090         2.167712        -1.956581
 H         2.785309         1.997915        -2.367067
 H         3.569696         3.693770        -0.060146
 H         2.399458         4.020919        -1.370304
 H         2.331447         1.087475         1.436142
