19
Iteration:  4161
 C        -0.150451        -0.104867        -0.331838
 C         1.393605         0.223043        -0.266426
 O         2.130902        -1.052163         0.043316
 C         2.585662        -0.250853        -1.044094
 C         3.446000         0.884504        -0.523993
 C         3.459309         2.045444        -1.520639
 C         2.501680         3.076734        -0.973838
 O         2.066985         2.608847         0.344066
 C         2.317542         1.197100         0.513052
 H        -0.504876        -0.532820         0.597613
 H        -0.717757         0.797224        -0.708762
 H        -0.232964        -0.915727        -0.996232
 H         2.622245        -0.858802        -1.955826
 H         4.496699         0.741738        -0.194601
 H         4.479397         2.416389        -1.486244
 H         3.202300         1.776215        -2.534595
 H         3.085400         3.906435        -0.533296
 H         1.595305         3.274084        -1.552867
 H         2.404433         1.087001         1.575413
