19
Iteration:  1510
 C        -0.000283         0.186198        -0.262102
 C         1.502304         0.155218        -0.189839
 O         2.103080        -1.065053         0.000298
 C         2.580285        -0.319592        -1.072325
 C         3.493758         0.840893        -0.460007
 C         3.567848         2.051613        -1.416686
 C         2.388670         2.923477        -1.037353
 O         1.881786         2.575617         0.198340
 C         2.299737         1.223881         0.538431
 H        -0.405616         0.244494         0.782063
 H        -0.528283         1.048256        -0.714362
 H        -0.395651        -0.829220        -0.574179
 H         2.785944        -0.974407        -1.929054
 H         4.450922         0.470762        -0.148337
 H         4.497287         2.604593        -1.299483
 H         3.482146         1.769028        -2.456636
 H         2.608923         4.027803        -1.093422
 H         1.694448         2.856071        -1.970286
 H         2.297161         1.318676         1.656340
