19
Iteration:  1624charge 0 multiplicity 1
 C        -0.031397        -0.030678        -0.025775
 C         1.350901         0.132139        -0.156988
 O         2.173248        -1.178799        -0.048563
 C         2.508941        -0.215865        -1.104417
 C         3.395458         0.873459        -0.465049
 C         3.781480         2.047297        -1.353798
 C         2.585153         3.032946        -1.117839
 O         1.787433         2.613752         0.042211
 C         2.195015         1.312949         0.523180
 H        -0.383723        -0.320037         0.917396
 H        -0.299404         0.990400        -0.229463
 H        -0.389684        -0.751188        -0.708192
 H         2.520820        -0.433485        -2.171919
 H         4.366829         0.360320        -0.184294
 H         4.721484         2.346166        -0.840076
 H         3.805332         1.856208        -2.449579
 H         2.962889         4.068966        -0.870675
 H         1.873747         3.202544        -1.937816
 H         2.250171         1.337241         1.607508
