19
Iteration:  2025charge 0 multiplicity 1
 C        -0.054703         0.187067        -0.384910
 C         1.435833         0.166965        -0.184744
 O         2.102673        -1.119294         0.064055
 C         2.627741        -0.235384        -1.015310
 C         3.521774         0.888600        -0.523032
 C         3.606041         2.040267        -1.534636
 C         2.322319         2.908236        -0.994154
 O         1.876350         2.517630         0.322302
 C         2.376723         1.241163         0.512637
 H        -0.520171         0.475671         0.606255
 H        -0.444602         1.049976        -1.025257
 H        -0.292363        -0.793993        -0.707926
 H         2.640693        -0.851345        -1.888696
 H         4.447823         0.641868        -0.064540
 H         4.540237         2.536285        -1.441767
 H         3.441952         1.610745        -2.558046
 H         2.602201         3.991625        -0.914933
 H         1.497092         2.824844        -1.663401
 H         2.626547         1.220439         1.603608
