19
Iteration:  4745charge 0 multiplicity 1
 C        -0.091419         0.007707        -0.310352
 C         1.437386         0.151689        -0.147767
 O         2.201453        -1.074057         0.094162
 C         2.554531        -0.285833        -1.019280
 C         3.434483         0.924663        -0.547961
 C         3.215419         1.958089        -1.569139
 C         2.822803         3.132831        -0.766345
 O         1.830866         2.514492         0.140236
 C         2.328458         1.222338         0.450595
 H        -0.544072        -0.476821         0.539740
 H        -0.472386         0.942218        -0.679823
 H         0.004449        -0.710208        -1.072451
 H         2.543252        -0.493329        -2.046405
 H         4.483182         0.878704        -0.173080
 H         4.193096         2.293653        -2.080955
 H         2.529289         1.881625        -2.452463
 H         3.658707         3.684880        -0.320847
 H         2.428290         3.895509        -1.426121
 H         2.467164         1.159617         1.520985
