19
Iteration:  1160
 C        -0.058760         0.062926        -0.281905
 C         1.413545         0.261808        -0.266673
 O         2.192377        -1.067094         0.036740
 C         2.519039        -0.236141        -1.089003
 C         3.472737         0.836173        -0.494659
 C         3.580423         1.966914        -1.423497
 C         2.399202         2.908834        -1.065597
 O         1.997525         2.604888         0.358304
 C         2.277549         1.297093         0.512189
 H        -0.595265        -0.244491         0.605765
 H        -0.764771         0.893047        -0.510374
 H        -0.257132        -0.764108        -1.002184
 H         2.640422        -0.661686        -2.186542
 H         4.358228         0.524713         0.049731
 H         4.531730         2.534335        -1.417377
 H         3.451707         1.633850        -2.529192
 H         2.639561         4.003464        -1.131454
 H         1.545553         2.623281        -1.881825
 H         2.406466         1.133386         1.632113
