19
Iteration:  2096charge 0 multiplicity 1
 C        -0.072140         0.100524        -0.272063
 C         1.404423         0.147459        -0.176072
 O         2.135707        -1.029892         0.117250
 C         2.516844        -0.307903        -1.111373
 C         3.471557         0.805958        -0.596203
 C         3.668498         2.151496        -1.327435
 C         2.295717         2.945955        -1.091132
 O         2.023458         2.532107         0.213344
 C         2.310424         1.245469         0.485044
 H        -0.437634        -0.069056         0.684941
 H        -0.448787         1.025409        -0.431654
 H        -0.331505        -0.697154        -0.995290
 H         2.543941        -0.778440        -2.088620
 H         4.363434         0.273607        -0.158575
 H         4.481230         2.770549        -0.784082
 H         3.854208         2.072248        -2.392509
 H         2.448558         4.006831        -1.058106
 H         1.536791         2.715076        -1.880209
 H         2.534383         1.024536         1.518525
