19
Iteration:  2536charge 0 multiplicity 1
 C        -0.021895        -0.019468        -0.316077
 C         1.422548         0.114621        -0.181530
 O         2.198038        -1.133539         0.238818
 C         2.500940        -0.267930        -1.005387
 C         3.368346         0.847046        -0.572417
 C         3.528384         2.012745        -1.528267
 C         2.680748         3.230895        -0.813256
 O         1.773240         2.571903         0.027115
 C         2.324196         1.201771         0.382788
 H        -0.337578        -0.545663         0.688148
 H        -0.498323         1.071207        -0.318742
 H        -0.441404        -0.685283        -1.085334
 H         2.353263        -0.764705        -1.923055
 H         4.344314         0.475245        -0.196120
 H         4.646443         2.368081        -1.598845
 H         3.008087         1.947891        -2.405022
 H         3.352666         3.898691        -0.257152
 H         2.145965         3.850076        -1.600090
 H         2.475725         1.375510         1.480589
