19
Iteration:  3089charge 0 multiplicity 1
 C        -0.048629         0.015269        -0.203595
 C         1.415370         0.124869        -0.067653
 O         2.192377        -1.083099         0.105355
 C         2.388879        -0.298736        -1.111012
 C         3.433987         0.858474        -0.662794
 C         3.670679         2.128261        -1.384119
 C         2.525326         3.080351        -1.036488
 O         1.839511         2.577390         0.175499
 C         2.334378         1.208269         0.477287
 H        -0.462095        -0.505295         0.629666
 H        -0.535173         0.985401        -0.481334
 H        -0.156854        -0.675775        -1.006287
 H         2.339883        -0.948364        -1.985736
 H         4.380989         0.582449        -0.196813
 H         4.709067         2.420322        -1.253534
 H         3.684701         2.077883        -2.546679
 H         2.942682         4.066712        -0.877043
 H         1.747778         3.132697        -1.857321
 H         2.428421         1.002108         1.577199
