19
Iteration:  2128charge 0 multiplicity 1
 C        -0.112579        -0.045402        -0.224536
 C         1.377286         0.143517        -0.132440
 O         2.124477        -1.047569        -0.005121
 C         2.481889        -0.189072        -1.168625
 C         3.514455         0.799534        -0.529979
 C         3.719688         2.156829        -1.324388
 C         2.330483         2.822112        -1.164031
 O         2.077298         2.674185         0.238789
 C         2.241810         1.283796         0.607901
 H        -0.300014        -0.569979         0.668939
 H        -0.609520         0.866240        -0.206096
 H        -0.422436        -0.660491        -1.110157
 H         2.359343        -0.490066        -2.210317
 H         4.443306         0.207542        -0.226585
 H         4.687671         2.738883        -1.014628
 H         3.951814         1.934859        -2.366096
 H         2.373351         3.899710        -1.261107
 H         1.584156         2.431754        -1.833033
 H         2.304527         1.412345         1.687265
