19
Iteration:  3134
 C        -0.030864         0.123564        -0.104769
 C         1.463563         0.209183        -0.173944
 O         2.142042        -1.078188        -0.081859
 C         2.604319        -0.260879        -1.140665
 C         3.463535         0.786594        -0.443935
 C         3.609913         2.068945        -1.328970
 C         2.305428         2.827520        -1.184840
 O         1.960967         2.636034         0.262529
 C         2.264114         1.288575         0.506314
 H        -0.399986        -0.432393         0.723776
 H        -0.453116         1.118353        -0.167395
 H        -0.371066        -0.348023        -1.034025
 H         2.490933        -0.563704        -2.193966
 H         4.463984         0.359043        -0.211840
 H         4.427489         2.755861        -1.031573
 H         3.947799         1.777400        -2.335169
 H         2.345564         3.896609        -1.308952
 H         1.478848         2.373073        -1.786080
 H         2.496424         1.066009         1.536660
