19
Iteration:  1933
 C        -0.028849         0.103619        -0.180026
 C         1.403464         0.109732        -0.099101
 O         2.156476        -1.113548        -0.122901
 C         2.544038        -0.231465        -1.111639
 C         3.501783         0.858067        -0.433999
 C         3.661415         2.033840        -1.269184
 C         2.382727         2.876106        -1.191130
 O         1.878500         2.648705         0.202277
 C         2.301733         1.302329         0.546381
 H        -0.511621        -0.276820         0.733823
 H        -0.497287         1.070354        -0.113605
 H        -0.449880        -0.448001        -1.140367
 H         2.640969        -0.561558        -2.199731
 H         4.407157         0.311144        -0.070086
 H         4.514138         2.619503        -1.183674
 H         3.643505         1.782881        -2.301382
 H         2.625822         3.916263        -1.184948
 H         1.667257         2.649836        -1.930903
 H         2.438337         1.194783         1.615956
