19
Iteration:  3252charge 0 multiplicity 1
 C        -0.054976        -0.060601        -0.241115
 C         1.352287         0.083240        -0.163594
 O         2.150586        -1.025844         0.046869
 C         2.546853        -0.316275        -1.090632
 C         3.422131         0.842432        -0.522754
 C         3.614864         2.057820        -1.493470
 C         2.462650         3.062433        -1.011267
 O         2.009146         2.657245         0.301038
 C         2.257598         1.293556         0.456239
 H        -0.438353        -0.184847         0.773150
 H        -0.656722         0.752272        -0.731298
 H        -0.363902        -0.971733        -0.783511
 H         2.580426        -0.909042        -2.022142
 H         4.406473         0.617841        -0.246059
 H         4.647708         2.429632        -1.442439
 H         3.490574         1.807883        -2.616097
 H         2.830674         4.080133        -0.990251
 H         1.513346         3.024833        -1.601833
 H         2.452899         1.151650         1.530281
