19
Iteration:  3660charge 0 multiplicity 1
 C        -0.138477        -0.162263        -0.070455
 C         1.276977         0.159303        -0.238249
 O         2.270112        -1.108110         0.107201
 C         2.452331        -0.260347        -1.082085
 C         3.415275         0.938199        -0.559388
 C         3.570253         2.064839        -1.536348
 C         2.874727         3.211068        -0.769207
 O         1.793731         2.557568         0.000898
 C         2.231369         1.267826         0.357392
 H        -0.388107        -0.444875         1.079610
 H        -1.006829         0.576056        -0.345710
 H        -0.353455        -1.117722        -0.544292
 H         2.556463        -0.883772        -2.009359
 H         4.208252         0.417078         0.042843
 H         4.563952         2.445593        -1.868065
 H         3.013518         1.757454        -2.453531
 H         3.595661         3.790794        -0.194436
 H         2.341688         3.776868        -1.518586
 H         2.488275         1.318450         1.482985
