19
Iteration:  4682charge 0 multiplicity 1
 C        -0.051812         0.189538        -0.301006
 C         1.444219         0.082212        -0.169944
 O         2.169439        -1.065908         0.203880
 C         2.584318        -0.347151        -1.065016
 C         3.534817         0.798369        -0.643470
 C         3.407504         2.069233        -1.574360
 C         2.549653         3.222915        -0.828638
 O         1.798702         2.455704         0.238819
 C         2.400551         1.135433         0.404698
 H        -0.632809         0.190629         0.584118
 H        -0.372723         1.223377        -0.872146
 H        -0.532494        -0.575637        -0.942903
 H         2.562578        -0.888202        -2.014263
 H         4.604006         0.559005        -0.442779
 H         4.352424         2.554917        -1.707550
 H         3.065425         1.768400        -2.566818
 H         3.169462         3.977111        -0.347977
 H         1.649125         3.726089        -1.422650
 H         2.447678         0.858454         1.422494
