19
Iteration:  1925charge 0 multiplicity 1
 C        -0.089638         0.165939        -0.138869
 C         1.442355         0.122700        -0.137362
 O         2.190759        -1.223837        -0.105235
 C         2.517406        -0.161426        -1.109417
 C         3.475913         0.817492        -0.406160
 C         3.713354         2.083602        -1.281632
 C         2.389233         2.898088        -1.141275
 O         1.878963         2.643083         0.145501
 C         2.285717         1.251643         0.487019
 H        -0.386565        -0.418815         0.756273
 H        -0.390374         1.252623        -0.156119
 H        -0.487183        -0.431217        -0.998570
 H         2.656059        -0.669986        -2.032649
 H         4.407498         0.508419        -0.026152
 H         4.527160         2.755696        -1.063410
 H         3.690752         1.665467        -2.359277
 H         2.415036         3.991491        -1.195221
 H         1.544604         2.613531        -1.810126
 H         2.330868         1.331926         1.600028
