19
Iteration:  4926charge 0 multiplicity 1
 C        -0.103870        -0.013098        -0.139481
 C         1.373048         0.106412        -0.015079
 O         2.152193        -1.179386        -0.117782
 C         2.476400        -0.209381        -1.066963
 C         3.403203         0.869580        -0.575101
 C         3.645827         2.112154        -1.425663
 C         2.598391         3.114541        -0.989736
 O         1.824002         2.553579         0.163110
 C         2.384997         1.258302         0.492394
 H        -0.474616        -0.555287         0.799177
 H        -0.626607         0.873893        -0.142723
 H        -0.293640        -0.622773        -1.025805
 H         2.291166        -0.663974        -1.995752
 H         4.331292         0.473311        -0.179228
 H         4.712090         2.395442        -1.251303
 H         3.608405         2.036746        -2.482924
 H         2.973734         4.184067        -0.746893
 H         1.908405         3.250012        -1.899052
 H         2.841986         1.222249         1.462832
