19
Iteration:   782charge 0 multiplicity 1
 C        -0.156085         0.096929        -0.115135
 C         1.430967         0.230151        -0.161019
 O         2.082905        -0.965192         0.050035
 C         2.520873        -0.286594        -1.141442
 C         3.455239         0.762807        -0.571994
 C         3.739413         2.137338        -1.293089
 C         2.361226         2.886441        -1.107408
 O         1.992716         2.542113         0.192779
 C         2.367928         1.207843         0.384867
 H        -0.369733        -0.795891         0.578751
 H        -0.716064         0.981109         0.303547
 H        -0.561058        -0.185769        -1.142245
 H         2.421048        -0.841352        -2.030385
 H         4.291415         0.300864        -0.089892
 H         4.508444         2.688885        -0.715131
 H         3.992631         2.122082        -2.399530
 H         2.587596         3.923805        -1.198713
 H         1.675307         2.595039        -1.905383
 H         2.560730         1.012984         1.405639
