19
Iteration:  2503charge 0 multiplicity 1
 C        -0.102578         0.088071        -0.195482
 C         1.404300         0.111481        -0.139723
 O         2.194970        -1.165864         0.038701
 C         2.608726        -0.200192        -1.008011
 C         3.442342         0.859822        -0.444061
 C         3.576129         1.987509        -1.508231
 C         2.575354         3.169590        -0.962116
 O         1.761803         2.569326         0.055719
 C         2.310212         1.180183         0.477423
 H        -0.476345        -0.422961         0.808056
 H        -0.547111         1.184703        -0.313450
 H        -0.463088        -0.551643        -1.021922
 H         2.672106        -0.661511        -1.977941
 H         4.406696         0.389155        -0.164995
 H         4.700570         2.331462        -1.561313
 H         3.312535         1.688478        -2.493332
 H         2.944259         4.077301        -0.430787
 H         2.151277         3.439865        -1.978763
 H         2.444816         1.155257         1.615293
