19
Iteration:  1517
 C        -0.040935         0.149627        -0.213444
 C         1.442066         0.164940        -0.175334
 O         2.130609        -1.076958         0.047675
 C         2.547192        -0.305473        -1.127880
 C         3.479421         0.783061        -0.422492
 C         3.619038         2.107669        -1.419828
 C         2.426515         2.986416        -1.057725
 O         1.840845         2.528631         0.155449
 C         2.314613         1.273399         0.545072
 H        -0.374801         0.186086         0.831420
 H        -0.285159         0.974213        -0.908264
 H        -0.218730        -0.758968        -0.846123
 H         2.739144        -0.806407        -2.038288
 H         4.479097         0.414278        -0.122049
 H         4.644685         2.489190        -1.498015
 H         3.473796         1.821690        -2.467335
 H         2.720474         4.012563        -1.022049
 H         1.571744         2.839333        -1.705435
 H         2.479082         1.131669         1.620952
