19
Iteration:   254
 C        -0.004442         0.148263        -0.104020
 C         1.418501         0.200106        -0.245263
 O         1.971690        -1.115053         0.011387
 C         2.496138        -0.326861        -1.156655
 C         3.405740         0.827555        -0.525986
 C         3.640354         2.173160        -1.358482
 C         2.362241         2.956153        -1.119433
 O         2.106348         2.547465         0.240214
 C         2.367683         1.205564         0.465454
 H        -0.190957        -0.150612         0.931164
 H        -0.391564         1.157322        -0.344537
 H        -0.381052        -0.552185        -0.858569
 H         2.503412        -1.066716        -2.085021
 H         4.311502         0.458902        -0.057593
 H         4.444394         2.746603        -0.796763
 H         3.933799         1.940808        -2.374144
 H         2.602060         4.060658        -0.976351
 H         1.494701         2.760062        -1.812613
 H         2.423003         0.964954         1.508302
