19
Iteration:   267
 C        -0.080713         0.216629        -0.181394
 C         1.437718         0.182147        -0.090866
 O         2.046014        -1.146357        -0.061808
 C         2.453179        -0.277517        -1.074867
 C         3.502252         0.824003        -0.572123
 C         3.655938         2.040715        -1.397648
 C         2.360910         2.948993        -1.072281
 O         1.980537         2.554270         0.249884
 C         2.422382         1.212726         0.494724
 H        -0.561107         0.053968         0.780915
 H        -0.519900         1.149892        -0.571976
 H        -0.400125        -0.645405        -0.789293
 H         2.450522        -0.560116        -2.130758
 H         4.531216         0.518301        -0.160460
 H         4.465933         2.612496        -0.899912
 H         4.012836         2.002574        -2.476550
 H         2.541727         4.040845        -1.094246
 H         1.482028         2.815566        -1.785201
 H         2.783535         1.152435         1.483129
