19
Iteration:  2607
 C        -0.076620        -0.141656        -0.252308
 C         1.388600         0.071174        -0.203965
 O         2.236188        -1.076473         0.211894
 C         2.553373        -0.331596        -1.013537
 C         3.376459         0.878037        -0.585280
 C         3.410813         2.063199        -1.553525
 C         2.870784         3.203152        -0.637251
 O         1.780254         2.636268        -0.055275
 C         2.211540         1.309187         0.314998
 H        -0.449786         0.163507         0.741915
 H        -0.569712         0.517625        -0.922070
 H        -0.424169        -1.207130        -0.397369
 H         2.507362        -0.815844        -2.085721
 H         4.315278         0.585883        -0.080185
 H         4.367364         2.205143        -1.958531
 H         2.642786         1.657314        -2.341227
 H         3.574246         3.528436         0.214328
 H         2.595671         4.125406        -1.222511
 H         2.587281         1.115689         1.340243
