19
Iteration:  2888
 C        -0.060566        -0.011148        -0.286242
 C         1.463611         0.089438        -0.120360
 O         2.185728        -1.127780         0.164273
 C         2.564294        -0.324771        -1.048294
 C         3.365286         0.892313        -0.567211
 C         3.477853         2.058167        -1.583328
 C         2.763126         3.146724        -0.821277
 O         1.750168         2.603633         0.079072
 C         2.286534         1.222919         0.472694
 H        -0.437698        -0.196161         0.727726
 H        -0.430233         0.895232        -0.491019
 H        -0.409065        -0.782264        -1.010230
 H         2.409621        -0.693200        -2.107558
 H         4.336090         0.618147        -0.298934
 H         4.541147         2.207362        -1.932025
 H         2.670376         2.064735        -2.450158
 H         3.439714         3.771460        -0.308243
 H         2.250655         3.837622        -1.478105
 H         2.562476         1.221636         1.536654
