19
Iteration:  3208
 C         0.031567         0.220166        -0.222740
 C         1.487626         0.124524        -0.116416
 O         2.174779        -1.125124         0.051821
 C         2.544021        -0.295214        -1.134891
 C         3.442333         0.831899        -0.586309
 C         3.571421         2.109628        -1.367183
 C         2.348661         2.928831        -1.133672
 O         1.836965         2.570080         0.274760
 C         2.350221         1.171455         0.526119
 H        -0.423796         0.367717         0.761295
 H        -0.108765         1.218200        -0.786230
 H        -0.426021        -0.588958        -0.751769
 H         2.410243        -0.717963        -2.124498
 H         4.279711         0.456964        -0.072756
 H         4.462546         2.667963        -1.069854
 H         3.789031         2.048039        -2.517184
 H         2.488329         4.002418        -1.226224
 H         1.742045         2.646589        -1.991268
 H         2.520173         1.123760         1.611441
