19
Iteration:   825
 C        -0.109669         0.103525        -0.170348
 C         1.326538         0.064647        -0.000407
 O         2.184424        -1.193255        -0.114825
 C         2.428232        -0.196975        -1.051761
 C         3.450892         0.860008        -0.438606
 C         3.648763         2.049343        -1.369663
 C         2.432268         2.973698        -1.140172
 O         1.985661         2.600096         0.154469
 C         2.387579         1.308208         0.504370
 H        -0.822398        -0.313145         0.573728
 H        -0.274443         1.188372        -0.219603
 H        -0.301488        -0.390372        -1.138267
 H         2.440660        -0.493435        -2.091883
 H         4.369317         0.559975         0.012413
 H         4.511064         2.672819        -1.119743
 H         3.739645         1.602834        -2.407039
 H         2.710917         4.017188        -1.144316
 H         1.683418         2.799989        -1.994606
 H         2.680650         1.337522         1.525795
