19
Iteration:    19
 C        -0.094882         0.220793        -0.095345
 C         1.416810         0.278980        -0.321989
 O         1.952540        -1.193287         0.017824
 C         2.582925        -0.466764        -1.056424
 C         3.555521         0.748544        -0.624323
 C         3.668939         2.123350        -1.416851
 C         2.393738         3.004902        -1.125672
 O         1.916877         2.687289         0.325985
 C         2.427399         1.202251         0.517746
 H        -0.194830        -0.312466         0.887562
 H        -0.781537         1.067661        -0.151046
 H        -0.575398        -0.458068        -0.828167
 H         2.706664        -0.955396        -1.991903
 H         4.543470         0.367814        -0.384041
 H         4.519883         2.566596        -0.927392
 H         3.885003         2.181258        -2.525804
 H         2.643939         4.052069        -1.207421
 H         1.603201         2.837435        -1.907828
 H         2.561767         0.851844         1.641362
