19
Iteration:  4575
 C        -0.153353         0.036415        -0.075935
 C         1.363416         0.136263        -0.169385
 O         2.187611        -1.075368        -0.037362
 C         2.435399        -0.187659        -1.184434
 C         3.403732         0.816646        -0.627294
 C         3.792413         2.167181        -1.257220
 C         2.370188         2.908706        -1.152852
 O         1.957318         2.610954         0.245137
 C         2.377019         1.185842         0.481665
 H        -0.337075        -0.379035         0.858111
 H        -0.544821         1.081359        -0.083712
 H        -0.552193        -0.568789        -0.885660
 H         2.489383        -0.550645        -2.193226
 H         4.238157         0.393551        -0.106422
 H         4.398517         2.778463        -0.535002
 H         4.278271         2.204261        -2.251342
 H         2.280542         4.010793        -1.250758
 H         1.786887         2.399357        -1.874823
 H         2.810465         0.749211         1.450174
