19
Iteration:  1710charge 0 multiplicity 1
 C        -0.053557         0.278936        -0.285986
 C         1.454632         0.152712        -0.217846
 O         2.094179        -1.122642        -0.035296
 C         2.647890        -0.212282        -1.056171
 C         3.525046         0.851456        -0.371568
 C         3.575544         2.051214        -1.428722
 C         2.223228         2.746697        -1.180137
 O         2.051852         2.612140         0.316485
 C         2.278118         1.229791         0.564112
 H        -0.350808        -0.042022         0.804621
 H        -0.592755         1.171497        -0.830230
 H        -0.462126        -0.597006        -0.798809
 H         2.786060        -0.610593        -2.050299
 H         4.565352         0.620124        -0.043407
 H         4.367949         2.823744        -1.174321
 H         3.640450         1.839026        -2.436469
 H         2.318172         3.858390        -1.459299
 H         1.371896         2.319218        -1.803924
 H         2.446644         1.049111         1.645269
