19
Iteration:  4460charge 0 multiplicity 1
 C        -0.128075         0.016537        -0.394598
 C         1.395214         0.173216        -0.208301
 O         2.150303        -1.007892         0.155158
 C         2.422285        -0.241406        -1.120745
 C         3.480132         0.857002        -0.674961
 C         3.585877         2.199051        -1.393551
 C         2.335907         2.982365        -1.047407
 O         2.108413         2.521582         0.423906
 C         2.395752         1.161552         0.462894
 H        -0.645697        -0.083123         0.657416
 H        -0.611383         0.833489        -0.849620
 H        -0.289801        -0.873197        -1.104059
 H         2.609100        -0.937864        -1.949731
 H         4.497786         0.574147        -0.288772
 H         4.523325         2.636446        -1.126622
 H         3.684647         1.945665        -2.439024
 H         2.414876         4.067452        -0.940591
 H         1.425755         2.533804        -1.466477
 H         2.645491         0.757324         1.402959
