19
Iteration:  2455
 C        -0.140218         0.064503        -0.220608
 C         1.407479         0.130085        -0.137908
 O         2.176224        -1.157860         0.052945
 C         2.498843        -0.201124        -1.084538
 C         3.466449         0.836580        -0.524434
 C         3.708561         2.107969        -1.301196
 C         2.464683         3.016794        -1.105000
 O         1.839423         2.496811         0.159139
 C         2.375853         1.268159         0.466882
 H        -0.387812         0.129418         0.840534
 H        -0.433579         1.028680        -0.606696
 H        -0.665676        -0.764773        -0.837560
 H         2.234357        -0.679229        -2.101792
 H         4.380555         0.381442        -0.125807
 H         4.578587         2.707295        -1.215052
 H         3.839776         2.062284        -2.460901
 H         2.817479         4.037043        -0.950628
 H         1.705674         3.054278        -1.927222
 H         2.533089         1.381880         1.506805
