19
Iteration:   419charge 0 multiplicity 1
 C        -0.106524         0.103889        -0.183483
 C         1.447127         0.149403        -0.137800
 O         2.023416        -1.097464        -0.015665
 C         2.455957        -0.195638        -1.053822
 C         3.582151         0.718067        -0.564882
 C         3.601530         2.083067        -1.433440
 C         2.453582         3.033621        -1.055684
 O         1.949712         2.545323         0.208019
 C         2.420464         1.237949         0.534605
 H        -0.447006        -0.302697         0.768412
 H        -0.264746         1.174227        -0.416349
 H        -0.426210        -0.464179        -1.065992
 H         2.283108        -0.690075        -1.968382
 H         4.495557         0.340396        -0.256559
 H         4.529936         2.657350        -1.234717
 H         3.505782         1.954884        -2.506546
 H         2.717383         4.064908        -0.812658
 H         1.681200         2.900142        -1.804060
 H         2.336809         1.078147         1.585211
