19
Iteration:   143charge 0 multiplicity 1
 C        -0.007400         0.344321        -0.134658
 C         1.407658         0.085601        -0.309314
 O         2.221409        -0.980146         0.044541
 C         2.505823        -0.149148        -1.193996
 C         3.491410         0.724582        -0.568259
 C         3.665951         2.022284        -1.401683
 C         2.346647         2.788343        -1.112205
 O         1.977349         2.545885         0.317950
 C         2.169497         1.164051         0.530363
 H        -0.221746         0.310889         0.933482
 H        -0.315732         1.358138        -0.421920
 H        -0.702497        -0.395588        -0.533650
 H         2.440963        -0.783985        -2.173911
 H         4.265560         0.235605        -0.082249
 H         4.436538         2.590903        -0.811397
 H         3.894453         2.010869        -2.437502
 H         2.653793         3.874815        -1.222542
 H         1.503353         2.491600        -1.747200
 H         2.148990         0.939974         1.602759
