19
Iteration:  2797charge 0 multiplicity 1
 C        -0.113691        -0.150536        -0.160673
 C         1.376086         0.107812        -0.181785
 O         2.217686        -1.106969         0.117535
 C         2.491005        -0.277472        -1.034080
 C         3.424695         0.880161        -0.523041
 C         3.492026         2.123023        -1.569704
 C         2.853855         3.204382        -0.734858
 O         1.781458         2.588344        -0.023484
 C         2.200825         1.264588         0.345786
 H        -0.414070         0.043639         0.858036
 H        -0.695558         0.551879        -0.796245
 H        -0.273603        -1.157625        -0.467518
 H         2.554965        -0.724999        -2.001595
 H         4.422150         0.610707        -0.022288
 H         4.575103         2.179693        -1.899785
 H         2.941317         1.605355        -2.418119
 H         3.560501         3.584309        -0.027881
 H         2.489609         4.028219        -1.252160
 H         2.381402         1.202500         1.445547
