19
Iteration:  2009charge 0 multiplicity 1
 C        -0.038883         0.149979        -0.367132
 C         1.435839         0.147052        -0.213464
 O         2.164117        -1.062615         0.131643
 C         2.562374        -0.384973        -1.076055
 C         3.490200         0.816309        -0.492882
 C         3.500428         2.119806        -1.375174
 C         2.331342         2.985463        -1.078340
 O         2.043876         2.607550         0.289533
 C         2.322452         1.182277         0.482448
 H        -0.611521         0.271805         0.556599
 H        -0.292317         0.962746        -1.031270
 H        -0.509279        -0.750878        -0.959720
 H         2.490425        -0.824606        -2.128977
 H         4.536775         0.532566        -0.125954
 H         4.453608         2.741372        -1.287309
 H         3.470084         1.946063        -2.427297
 H         2.387129         4.058214        -1.088738
 H         1.384301         2.678123        -1.693499
 H         2.359910         0.920487         1.536490
