19
Iteration:   965charge 0 multiplicity 1
 C        -0.058177         0.177182        -0.244937
 C         1.419479         0.121566        -0.228758
 O         2.119659        -1.188992         0.029843
 C         2.617417        -0.332718        -1.036768
 C         3.502033         0.813283        -0.524215
 C         3.531413         2.042766        -1.400113
 C         2.362113         2.965998        -1.134030
 O         2.017476         2.685113         0.290363
 C         2.275482         1.256706         0.470240
 H        -0.471698        -0.187470         0.689468
 H        -0.269526         1.288714        -0.221320
 H        -0.752876        -0.294111        -0.947506
 H         2.724253        -0.752163        -2.070560
 H         4.520352         0.528030        -0.179429
 H         4.343559         2.589506        -1.056249
 H         3.694648         1.759662        -2.448401
 H         2.654380         4.042649        -0.928446
 H         1.391594         2.954832        -1.690899
 H         2.410965         1.037086         1.544029
