19
Iteration:  1940charge 0 multiplicity 1
 C        -0.051438         0.041714        -0.210718
 C         1.451194         0.153181        -0.124846
 O         2.120472        -1.043695        -0.090952
 C         2.568278        -0.212214        -1.090370
 C         3.471163         0.833358        -0.441120
 C         3.611768         2.041114        -1.367246
 C         2.379739         2.878075        -1.153184
 O         1.898405         2.602718         0.232227
 C         2.311182         1.291751         0.587831
 H        -0.510168        -0.457003         0.655161
 H        -0.389563         1.095859        -0.344803
 H        -0.379321        -0.446969        -1.084719
 H         2.397223        -0.395434        -2.164643
 H         4.389480         0.387109         0.064238
 H         4.664269         2.519240        -1.012712
 H         3.872027         1.749061        -2.435566
 H         2.755127         3.941557        -1.325871
 H         1.687705         2.590963        -2.044283
 H         2.538217         1.196048         1.662080
