19
Iteration:  4187charge 0 multiplicity 1
 C        -0.020036         0.079893        -0.253496
 C         1.462557         0.085488        -0.259752
 O         2.181506        -1.107838         0.013207
 C         2.538568        -0.306396        -1.136727
 C         3.460490         0.829080        -0.490668
 C         3.559599         2.036242        -1.467003
 C         2.477302         3.119506        -0.947225
 O         1.893040         2.642613         0.315964
 C         2.259269         1.194031         0.459382
 H        -0.397765        -0.276061         0.803967
 H        -0.215971         1.080992        -0.434677
 H        -0.546399        -0.555398        -1.042385
 H         2.447986        -0.932817        -2.067657
 H         4.398768         0.608848         0.015170
 H         4.596310         2.424481        -1.637251
 H         3.117977         1.710473        -2.420639
 H         2.813684         4.068791        -0.576486
 H         1.621210         3.164001        -1.676554
 H         2.354851         1.142542         1.548067
