19
Iteration:  4663
 C        -0.006885         0.106010        -0.286254
 C         1.415888         0.105467        -0.196784
 O         2.196774        -1.073992         0.105378
 C         2.506209        -0.305098        -1.100838
 C         3.412795         0.841719        -0.633448
 C         3.485172         2.035811        -1.507866
 C         2.546747         3.079938        -0.875010
 O         1.876324         2.530390         0.253951
 C         2.337347         1.245929         0.476053
 H        -0.463703         0.132319         0.693277
 H        -0.456646         0.940268        -0.784411
 H        -0.377498        -0.808301        -0.822305
 H         2.568363        -0.887818        -2.080259
 H         4.339285         0.549871        -0.159545
 H         4.448976         2.481122        -1.576996
 H         2.993020         1.904020        -2.458515
 H         3.146600         3.906335        -0.418474
 H         1.807664         3.387092        -1.571952
 H         2.689904         1.217903         1.553496
