19
Iteration:  3711
 C        -0.055390         0.176688        -0.116979
 C         1.424765         0.103672        -0.000622
 O         2.231268        -1.137273         0.092849
 C         2.489700        -0.316632        -1.063237
 C         3.480264         0.818100        -0.655518
 C         3.529494         2.100084        -1.543010
 C         2.698783         3.198168        -0.692508
 O         1.655763         2.327853        -0.152486
 C         2.345823         1.250304         0.437181
 H        -0.544947         0.179865         0.776141
 H        -0.356531         1.000937        -0.723962
 H        -0.490874        -0.737956        -0.632005
 H         2.293006        -0.502583        -2.095048
 H         4.437824         0.721186        -0.194883
 H         4.541731         2.445974        -1.512162
 H         3.128390         2.135444        -2.625173
 H         3.294209         3.739845         0.097385
 H         2.171015         3.934287        -1.349829
 H         2.599780         1.496467         1.451882
