19
Iteration:   805charge 0 multiplicity 1
 C        -0.102741         0.110954        -0.211624
 C         1.457596         0.145865        -0.061523
 O         2.175046        -1.114261         0.038064
 C         2.412217        -0.153354        -1.104498
 C         3.431676         0.800005        -0.595373
 C         3.751895         2.073272        -1.401777
 C         2.443364         2.930728        -1.129979
 O         1.926608         2.581131         0.193478
 C         2.282599         1.237398         0.573760
 H        -0.526715        -0.659962         0.590448
 H        -0.530701         1.109109         0.065721
 H        -0.454468        -0.206969        -1.254846
 H         2.088865        -0.573776        -2.072124
 H         4.350688         0.277452        -0.310583
 H         4.600217         2.621316        -0.891200
 H         3.909843         1.930032        -2.507131
 H         2.704042         3.971978        -1.186374
 H         1.854818         2.599989        -1.948342
 H         2.492354         1.169262         1.615772
