19
Iteration:  4355charge 0 multiplicity 1
 C        -0.036954         0.173275        -0.209101
 C         1.457720         0.016399        -0.110034
 O         2.202043        -1.156779         0.076294
 C         2.487313        -0.297663        -1.119743
 C         3.438657         0.766727        -0.668487
 C         3.598273         2.220200        -1.390466
 C         2.473364         3.130534        -0.940036
 O         1.797890         2.504465         0.185242
 C         2.316907         1.179035         0.482096
 H        -0.595056        -0.123065         0.623901
 H        -0.143994         1.291140        -0.492713
 H        -0.293211        -0.334831        -1.137652
 H         2.390455        -0.838371        -2.108085
 H         4.476249         0.381502        -0.557328
 H         4.630875         2.550345        -1.063020
 H         3.605266         2.080650        -2.530813
 H         2.827418         4.130751        -0.675848
 H         1.843903         3.395145        -1.730161
 H         2.662538         1.076992         1.591951
