19
Iteration:  4821
 C        -0.118792        -0.155865        -0.130807
 C         1.411098         0.160337        -0.092814
 O         2.218018        -1.112532         0.064105
 C         2.453455        -0.201737        -1.077349
 C         3.444806         0.892927        -0.655233
 C         3.552599         2.080570        -1.505325
 C         2.893346         3.170499        -0.678514
 O         1.682863         2.546825        -0.073387
 C         2.226879         1.255600         0.397468
 H        -0.363830        -0.176556         0.975950
 H        -0.711406         0.543776        -0.720575
 H        -0.232896        -1.162106        -0.437391
 H         2.228436        -0.590318        -2.060356
 H         4.389882         0.416194        -0.340861
 H         4.621717         2.327557        -1.814848
 H         2.845786         2.011711        -2.394025
 H         3.770372         3.398016         0.105258
 H         2.531868         4.031143        -1.170670
 H         2.370203         1.271365         1.536079
