19
Iteration:  1806charge 0 multiplicity 1
 C        -0.042595         0.046852        -0.285688
 C         1.448378         0.189644        -0.249380
 O         2.076891        -1.007768         0.072226
 C         2.606514        -0.251006        -1.049130
 C         3.472431         0.773528        -0.503184
 C         3.589370         2.066519        -1.383141
 C         2.375286         2.971084        -1.055858
 O         1.986765         2.585847         0.259198
 C         2.305118         1.253369         0.436275
 H        -0.343737        -0.303968         0.686073
 H        -0.596347         0.865639        -0.702691
 H        -0.385730        -0.810990        -0.752108
 H         2.594802        -0.597538        -2.066681
 H         4.253536         0.272314         0.013173
 H         4.587700         2.517066        -1.164525
 H         3.475745         1.634375        -2.420569
 H         2.507499         4.062673        -1.015081
 H         1.525288         2.854114        -1.689308
 H         2.545136         1.110067         1.523349
