19
Iteration:  2357
 C        -0.002997         0.267645        -0.237673
 C         1.436365         0.156045        -0.090407
 O         2.190601        -1.130063        -0.061246
 C         2.577317        -0.266027        -1.046785
 C         3.481122         0.730321        -0.478542
 C         3.590908         2.081174        -1.324214
 C         2.310744         2.904794        -1.151020
 O         1.884117         2.546161         0.218334
 C         2.297860         1.274688         0.523199
 H        -0.615995        -0.129867         0.606943
 H        -0.277515         1.311598        -0.352273
 H        -0.172759        -0.266231        -1.299771
 H         2.710485        -0.508969        -2.120684
 H         4.462489         0.477665        -0.033449
 H         4.561590         2.519869        -1.222712
 H         3.643335         1.766884        -2.388852
 H         2.422921         3.993818        -1.061388
 H         1.445766         2.721871        -1.894373
 H         2.560892         1.112777         1.553401
