19
Iteration:  2448charge 0 multiplicity 1
 C        -0.146791         0.064459        -0.213406
 C         1.417453         0.115402        -0.104824
 O         2.181723        -1.109020         0.037520
 C         2.479516        -0.254003        -1.092493
 C         3.455427         0.859782        -0.540038
 C         3.711903         2.182661        -1.307069
 C         2.427919         2.932293        -1.098002
 O         1.904926         2.552733         0.140236
 C         2.348459         1.215507         0.468311
 H        -0.601294         0.134591         0.838972
 H        -0.509824         1.057916        -0.696391
 H        -0.547495        -0.774682        -0.822789
 H         2.249888        -0.721190        -2.079449
 H         4.334638         0.302221        -0.169649
 H         4.637780         2.832188        -0.985259
 H         3.844104         1.966316        -2.333718
 H         2.681720         3.974047        -0.810974
 H         1.874596         2.981664        -2.089860
 H         2.557090         1.195741         1.585962
