19
Iteration:  3076charge 0 multiplicity 1
 C        -0.049027        -0.048203        -0.240934
 C         1.421557         0.126473        -0.146910
 O         2.215066        -1.084723         0.120383
 C         2.459544        -0.240377        -1.067423
 C         3.330076         0.776356        -0.605083
 C         3.602649         2.067661        -1.420086
 C         2.536639         3.106519        -0.960843
 O         1.866118         2.565217         0.132097
 C         2.353250         1.296227         0.448545
 H        -0.439020        -0.124994         0.764692
 H        -0.515019         0.949943        -0.473731
 H        -0.423215        -0.785521        -0.871987
 H         2.390824        -0.640767        -2.065299
 H         4.210031         0.217029        -0.379937
 H         4.440039         2.511658        -0.895814
 H         3.699700         1.885905        -2.607686
 H         2.965266         4.067295        -0.636416
 H         1.808379         3.369118        -1.741140
 H         2.938066         1.290008         1.411744
