19
Iteration:    38charge 0 multiplicity 1
 C        -0.025883         0.187624        -0.126352
 C         1.389731         0.119560        -0.246909
 O         1.991046        -1.095721         0.058643
 C         2.554326        -0.359607        -1.103505
 C         3.468351         0.801083        -0.528227
 C         3.612828         2.117019        -1.392593
 C         2.411866         3.004801        -1.012514
 O         2.072410         2.560836         0.225565
 C         2.304380         1.217718         0.325462
 H        -0.207088        -0.251428         0.873680
 H        -0.339031         1.273791        -0.100672
 H        -0.729603        -0.267132        -0.850158
 H         2.579171        -1.003726        -2.067894
 H         4.461823         0.606780         0.086433
 H         4.558678         2.650054        -1.047900
 H         3.734080         1.889110        -2.469132
 H         2.596496         4.119305        -0.995375
 H         1.560088         2.876184        -1.730440
 H         2.416018         1.048635         1.397419
