19
Iteration:  3853
 C        -0.089319         0.089899        -0.272348
 C         1.421178         0.036062        -0.192833
 O         2.201387        -1.132761         0.246429
 C         2.665320        -0.320675        -0.981247
 C         3.411135         0.963577        -0.658878
 C         3.312346         2.059237        -1.697072
 C         2.839014         3.158281        -0.699153
 O         1.718338         2.497075         0.047353
 C         2.271889         1.230096         0.410641
 H        -0.200603         0.197054         0.780244
 H        -0.360336         1.060647        -0.809354
 H        -0.571253        -0.947588        -0.558172
 H         2.757229        -0.787644        -2.045599
 H         4.395454         0.815912        -0.165800
 H         4.268594         2.120730        -2.171718
 H         2.577956         1.842753        -2.494610
 H         3.547523         3.385734         0.098601
 H         2.547534         4.216747        -1.040654
 H         2.568189         1.108699         1.425542
