19
Iteration:   604charge 0 multiplicity 1
 C        -0.026260         0.178090        -0.275031
 C         1.421904         0.119205        -0.031118
 O         2.222574        -1.185073        -0.035476
 C         2.403184        -0.191663        -1.086635
 C         3.341613         0.817816        -0.577322
 C         3.557072         2.002205        -1.455892
 C         2.417426         2.884660        -1.092744
 O         2.087744         2.654911         0.294258
 C         2.290516         1.291435         0.628910
 H        -0.769544        -0.304621         0.397199
 H        -0.434666         1.206860        -0.650757
 H        -0.242488        -0.335298        -1.253774
 H         2.267011        -0.435335        -2.134326
 H         4.373148         0.592809        -0.356289
 H         4.430102         2.547391        -1.064687
 H         3.849189         1.755478        -2.505915
 H         2.785217         3.922994        -1.221878
 H         1.621968         2.619632        -1.735716
 H         2.527878         1.135243         1.704356
