19
Iteration:  1753charge 0 multiplicity 1
 C         0.023920         0.210028        -0.443317
 C         1.485657         0.141182        -0.116812
 O         2.179440        -1.136534         0.150493
 C         2.478912        -0.313772        -1.053179
 C         3.487067         0.835201        -0.542261
 C         3.474458         2.088497        -1.447121
 C         2.311698         2.901877        -1.099092
 O         1.955030         2.609982         0.297485
 C         2.390868         1.212093         0.539306
 H        -0.808957        -0.109211         0.323323
 H        -0.235730         1.316443        -0.761638
 H        -0.184779        -0.336280        -1.391372
 H         2.406174        -0.749178        -2.028562
 H         4.424824         0.449152        -0.113949
 H         4.420046         2.642074        -1.179878
 H         3.659589         1.766709        -2.423132
 H         2.678056         3.962185        -1.019001
 H         1.378201         2.909917        -1.621534
 H         2.516905         1.113489         1.639638
