19
Iteration:  3587charge 0 multiplicity 1
 C        -0.021092         0.016545        -0.315084
 C         1.432001         0.119026        -0.013638
 O         2.248364        -1.093164         0.190714
 C         2.494213        -0.284651        -1.037097
 C         3.351304         0.899009        -0.621191
 C         3.365686         2.051978        -1.609425
 C         2.801895         3.125012        -0.735698
 O         1.725794         2.491812         0.005873
 C         2.345900         1.300749         0.408927
 H        -0.646434        -0.231006         0.538397
 H        -0.503149         0.953235        -0.587714
 H        -0.195964        -0.782506        -0.948594
 H         2.593019        -0.952213        -1.952650
 H         4.385449         0.685960        -0.206408
 H         4.434008         1.988630        -2.044152
 H         2.717627         2.039314        -2.463582
 H         3.509475         3.438612         0.090415
 H         2.415401         3.971133        -1.303387
 H         2.691517         1.223541         1.440822
