19
Iteration:   160charge 0 multiplicity 1
 C        -0.075210         0.268442        -0.147207
 C         1.417006         0.158282        -0.117461
 O         2.100041        -1.158392        -0.015296
 C         2.488849        -0.187230        -1.116710
 C         3.505907         0.815590        -0.528860
 C         3.665335         2.097315        -1.349267
 C         2.377056         2.899981        -1.106406
 O         1.963010         2.498086         0.191973
 C         2.356909         1.176056         0.492000
 H        -0.529375         0.162843         0.873442
 H        -0.298266         1.289569        -0.506080
 H        -0.636327        -0.371391        -0.853475
 H         2.436413        -0.530357        -2.096185
 H         4.536268         0.371068        -0.265496
 H         4.544138         2.663291        -1.078643
 H         3.788643         1.806509        -2.444932
 H         2.480742         3.967392        -1.075429
 H         1.571173         2.710755        -1.871301
 H         2.502314         1.191679         1.609878
