19
Iteration:  2198charge 0 multiplicity 1
 C        -0.132365         0.262026        -0.133747
 C         1.425493         0.079250        -0.154598
 O         2.194723        -1.134596         0.034676
 C         2.554441        -0.322789        -1.205436
 C         3.445142         0.819885        -0.544406
 C         3.700006         2.229868        -1.249616
 C         2.392304         2.992258        -1.155813
 O         1.832337         2.435508         0.142472
 C         2.401089         1.239276         0.531685
 H        -0.493152         0.081492         0.886773
 H        -0.307847         1.299435        -0.541280
 H        -0.652317        -0.361264        -0.773176
 H         2.287292        -0.897532        -2.135000
 H         4.304383         0.306521        -0.178601
 H         4.464053         2.858698        -0.843868
 H         4.148128         2.040099        -2.275149
 H         2.475290         4.088361        -1.020249
 H         1.611096         2.733608        -1.941356
 H         2.531219         0.877442         1.559266
