19
Iteration:  2776
 C        -0.053228        -0.142610        -0.218154
 C         1.443059         0.137440        -0.069204
 O         2.179894        -1.049254         0.101810
 C         2.490163        -0.303933        -1.112813
 C         3.379449         0.850815        -0.615710
 C         3.551409         2.033529        -1.498323
 C         2.819540         3.200334        -0.820360
 O         1.728312         2.549280         0.037067
 C         2.201690         1.315771         0.473896
 H        -0.402793        -0.247140         0.789495
 H        -0.583371         0.733219        -0.500233
 H        -0.298099        -0.946511        -0.880213
 H         2.493821        -0.907299        -2.004072
 H         4.415902         0.538635        -0.339374
 H         4.697985         2.212228        -1.618570
 H         3.099064         1.908537        -2.568031
 H         3.410882         3.814685        -0.153018
 H         2.358381         3.835585        -1.514830
 H         2.515159         1.407962         1.522840
