19
Iteration:   931charge 0 multiplicity 1
 C        -0.019013         0.142831        -0.327805
 C         1.414479         0.206209        -0.076301
 O         2.096831        -1.042821         0.011315
 C         2.460700        -0.152355        -1.015794
 C         3.574210         0.793565        -0.603680
 C         3.586255         2.000369        -1.504051
 C         2.341845         2.870179        -1.058453
 O         1.973627         2.504232         0.311218
 C         2.351183         1.238029         0.624235
 H        -0.671591         0.228768         0.535034
 H        -0.170707         0.905898        -1.139135
 H        -0.150564        -0.774099        -0.893618
 H         2.475481        -0.367944        -2.048570
 H         4.538772         0.595236        -0.167111
 H         4.454743         2.580486        -1.469627
 H         3.547666         1.722414        -2.560464
 H         2.671651         3.944021        -1.111380
 H         1.568623         2.878523        -1.870116
 H         2.326187         1.160414         1.749416
