19
Iteration:   561
 C        -0.000406         0.198679        -0.150545
 C         1.474873         0.187866        -0.274500
 O         1.960197        -1.041396         0.029601
 C         2.567783        -0.268214        -1.023285
 C         3.523742         0.824553        -0.648399
 C         3.650958         2.088807        -1.380469
 C         2.306432         2.873338        -1.105564
 O         1.987843         2.531619         0.258463
 C         2.351339         1.158576         0.486096
 H        -0.200130        -0.423184         0.780862
 H        -0.401898         1.282569         0.154904
 H        -0.733496        -0.106077        -0.990587
 H         2.631711        -0.811519        -1.920567
 H         4.394554         0.295310        -0.310411
 H         4.419000         2.586405        -0.759156
 H         3.887806         2.088602        -2.480501
 H         2.591295         3.955189        -0.952684
 H         1.447099         2.913617        -1.916100
 H         2.530604         1.055167         1.572297
