19
Iteration:   461
 C        -0.149437         0.189160        -0.099792
 C         1.360059         0.082168        -0.239082
 O         2.187972        -1.102406        -0.005152
 C         2.456220        -0.257384        -1.139140
 C         3.517388         0.764797        -0.564012
 C         3.681952         2.135563        -1.306012
 C         2.417470         2.929902        -1.103128
 O         2.055996         2.645881         0.256476
 C         2.235609         1.130108         0.434590
 H        -0.401734         0.226806         0.983248
 H        -0.530557         1.150423        -0.601516
 H        -0.939093        -0.507758        -0.513285
 H         2.478484        -0.640794        -2.198073
 H         4.476831         0.364233        -0.371621
 H         4.595311         2.663713        -0.964064
 H         3.934039         1.898876        -2.299194
 H         2.678306         4.018161        -1.129580
 H         1.427112         2.714203        -1.618212
 H         2.386163         1.166938         1.519186
