19
Iteration:  3739
 C        -0.022672         0.145099        -0.096574
 C         1.415234         0.060486        -0.189327
 O         2.205322        -1.128593         0.146072
 C         2.521392        -0.271334        -1.104608
 C         3.457679         0.875522        -0.581840
 C         3.543531         2.065589        -1.548181
 C         2.700731         3.178815        -0.794771
 O         1.688286         2.433282         0.004327
 C         2.278662         1.186532         0.393513
 H        -0.357519         0.023072         1.026869
 H        -0.420770         1.075480        -0.533275
 H        -0.623416        -0.613477        -0.636852
 H         2.630564        -0.629605        -2.148028
 H         4.395913         0.718145         0.031666
 H         4.605740         2.390485        -1.769856
 H         3.034103         1.892805        -2.455251
 H         3.280741         3.895741        -0.199243
 H         2.181266         3.766943        -1.553059
 H         2.467591         1.151150         1.516426
