19
Iteration:  2640charge 0 multiplicity 1
 C        -0.076946        -0.135441        -0.245451
 C         1.384656         0.078903        -0.120729
 O         2.199461        -1.032678         0.177424
 C         2.531622        -0.338400        -1.037438
 C         3.366675         0.880998        -0.584556
 C         3.564875         2.090154        -1.572970
 C         2.742442         3.209884        -0.733354
 O         1.827278         2.553943         0.013727
 C         2.208671         1.256851         0.389805
 H        -0.532781         0.214908         0.695914
 H        -0.431759         0.594309        -0.946316
 H        -0.443971        -1.113410        -0.637985
 H         2.238344        -0.913121        -2.008462
 H         4.291432         0.442469        -0.216643
 H         4.513884         2.489076        -1.755581
 H         3.128004         1.879942        -2.623001
 H         3.382490         3.779474        -0.018840
 H         2.345866         3.926640        -1.467137
 H         2.645739         1.289179         1.406911
