19
Iteration:  1656charge 0 multiplicity 1
 C        -0.102752         0.057397        -0.148404
 C         1.422591         0.119978        -0.093894
 O         2.156782        -1.081108         0.043564
 C         2.397109        -0.197843        -1.070156
 C         3.478073         0.851099        -0.555291
 C         3.776543         2.176220        -1.286684
 C         2.419580         2.900630        -1.114785
 O         1.866216         2.467380         0.063751
 C         2.355345         1.254806         0.509844
 H        -0.798385         0.117381         0.644500
 H        -0.320046         0.997120        -0.672896
 H        -0.406646        -0.575734        -0.934061
 H         2.335907        -0.500413        -2.103607
 H         4.490747         0.412773        -0.408194
 H         4.682573         2.649729        -0.876970
 H         4.038654         2.153167        -2.291047
 H         2.631734         4.009384        -0.972539
 H         1.665936         2.746410        -1.938499
 H         2.584259         1.300408         1.581222
