19
Iteration:  3491charge 0 multiplicity 1
 C        -0.081237        -0.097388        -0.282812
 C         1.352448         0.145764        -0.092093
 O         2.187133        -1.105236         0.077386
 C         2.486083        -0.225563        -0.946684
 C         3.422807         0.862820        -0.546117
 C         3.498355         2.070865        -1.575582
 C         2.627613         3.153463        -0.981926
 O         1.963482         2.561531         0.198063
 C         2.317929         1.256555         0.473831
 H        -0.718208        -0.256359         0.567636
 H        -0.650975         0.732534        -0.792938
 H        -0.163505        -1.079325        -0.869992
 H         2.270974        -0.650165        -1.980868
 H         4.430880         0.542443        -0.376761
 H         4.541028         2.437691        -1.616364
 H         3.322496         1.648773        -2.596328
 H         3.223854         4.003649        -0.657642
 H         1.831093         3.542017        -1.623589
 H         2.251018         1.227064         1.593954
