19
Iteration:  1114
 C        -0.131335         0.135480        -0.265209
 C         1.370946         0.150455        -0.087267
 O         2.266024        -1.165817         0.016207
 C         2.432095        -0.290005        -1.017000
 C         3.383464         0.822035        -0.572899
 C         3.717438         2.208045        -1.329636
 C         2.382387         2.960506        -1.084856
 O         1.958564         2.550184         0.182632
 C         2.383520         1.201859         0.435417
 H        -0.647944         0.405308         0.632937
 H        -0.496933         0.918898        -0.932405
 H        -0.526850        -0.766304        -0.627975
 H         2.175084        -0.689646        -1.972298
 H         4.287468         0.347345        -0.191253
 H         4.524684         2.567012        -0.612641
 H         4.172207         2.199107        -2.341314
 H         2.483683         4.022265        -1.023416
 H         1.524924         2.730031        -1.921082
 H         2.686738         1.295570         1.495952
