19
Iteration:  1568charge 0 multiplicity 1
 C        -0.085326        -0.063206        -0.159944
 C         1.377494         0.081243        -0.058973
 O         2.194123        -1.107598         0.096127
 C         2.380588        -0.271796        -1.079388
 C         3.422596         0.867708        -0.548746
 C         3.775644         2.074947        -1.320187
 C         2.582329         3.185800        -1.038295
 O         1.803644         2.607308         0.062856
 C         2.280081         1.240007         0.340956
 H        -0.207662        -0.522578         0.767076
 H        -0.593648         0.886777        -0.319255
 H        -0.292247        -0.747382        -0.937074
 H         2.057384        -0.714863        -2.093896
 H         4.322840         0.385596        -0.096302
 H         4.849786         2.350919        -1.096892
 H         3.789210         1.813288        -2.435488
 H         3.001053         4.200047        -0.761973
 H         1.964318         3.217585        -1.955533
 H         2.570116         1.207202         1.390772
