19
Iteration:  1222charge 0 multiplicity 1
 C        -0.015616         0.242227        -0.393614
 C         1.498277         0.175840        -0.046087
 O         2.124787        -1.078899         0.079994
 C         2.517509        -0.233915        -1.054301
 C         3.497187         0.742627        -0.571660
 C         3.562970         2.125524        -1.385785
 C         2.215375         2.869542        -1.117111
 O         1.947960         2.471032         0.240712
 C         2.443924         1.244938         0.535216
 H        -0.623341        -0.351630         0.329119
 H        -0.145380         1.360481        -0.327673
 H        -0.064546        -0.140841        -1.425946
 H         2.137928        -0.648560        -2.022614
 H         4.479723         0.437305        -0.149664
 H         4.426841         2.586581        -0.841353
 H         3.723598         2.062634        -2.464414
 H         2.322697         3.912029        -1.042983
 H         1.465877         2.622176        -1.786740
 H         2.711763         1.323441         1.637626
