19
Iteration:  2462charge 0 multiplicity 1
 C        -0.078015         0.100428        -0.205169
 C         1.409293         0.099777        -0.162622
 O         2.164040        -1.164322         0.040646
 C         2.480029        -0.188288        -1.068968
 C         3.501211         0.811619        -0.517225
 C         3.687875         2.058946        -1.381907
 C         2.505753         3.103265        -1.080275
 O         1.772668         2.489809         0.135668
 C         2.345116         1.288455         0.494732
 H        -0.418388        -0.065256         0.821147
 H        -0.421935         1.049898        -0.605240
 H        -0.517478        -0.714680        -0.688298
 H         2.525785        -0.508673        -2.059593
 H         4.435688         0.504446        -0.044616
 H         4.659722         2.476682        -0.994981
 H         3.695046         1.810300        -2.446260
 H         2.844873         4.160118        -1.039218
 H         1.617817         2.995022        -1.674142
 H         2.604849         1.233641         1.595041
