19
Iteration:  4201charge 0 multiplicity 1
 C        -0.052764         0.200654        -0.222465
 C         1.419573         0.081302        -0.174082
 O         2.215465        -1.175996         0.002122
 C         2.591994        -0.309329        -1.083001
 C         3.418640         0.868546        -0.543716
 C         3.492703         2.120779        -1.418507
 C         2.458981         3.100586        -0.972746
 O         1.911837         2.494534         0.202318
 C         2.286432         1.186466         0.494463
 H        -0.536421        -0.112395         0.702155
 H        -0.351269         1.301050        -0.353743
 H        -0.480268        -0.504576        -1.055187
 H         2.684632        -0.597856        -2.089907
 H         4.387423         0.495378        -0.227120
 H         4.452775         2.635602        -1.175464
 H         3.566276         1.868462        -2.531776
 H         3.050504         3.968297        -0.729889
 H         1.643580         3.333637        -1.751998
 H         2.392028         0.964441         1.613866
