19
Iteration:  2837
 C        -0.019454        -0.071236        -0.239660
 C         1.417362         0.042451        -0.152776
 O         2.238540        -1.103505         0.230970
 C         2.452739        -0.315775        -1.052652
 C         3.417229         0.910744        -0.629983
 C         3.440354         2.068406        -1.575013
 C         2.877160         3.202134        -0.679353
 O         1.738272         2.565889        -0.010184
 C         2.203940         1.270309         0.282473
 H        -0.461436         0.286145         0.737177
 H        -0.472406         0.628041        -1.090838
 H        -0.361540        -1.108707        -0.255732
 H         2.358630        -0.974604        -1.880454
 H         4.367743         0.649104        -0.098691
 H         4.346085         2.463541        -1.883402
 H         2.747968         2.059938        -2.323440
 H         3.756450         3.302460         0.070799
 H         2.545363         4.285926        -1.014270
 H         2.300521         1.168653         1.392593
