19
Iteration:  2657charge 0 multiplicity 1
 C        -0.050097        -0.040569        -0.244692
 C         1.397046         0.116237        -0.090398
 O         2.230519        -1.118201         0.169883
 C         2.444436        -0.291127        -1.086320
 C         3.433662         0.794216        -0.624309
 C         3.515327         2.118469        -1.463340
 C         2.759290         3.194625        -0.842574
 O         1.716373         2.563543         0.009659
 C         2.307874         1.279776         0.441401
 H        -0.649099         0.045834         0.724076
 H        -0.615026         0.725968        -0.832999
 H        -0.129808        -1.004906        -0.796784
 H         2.614511        -0.746446        -2.019221
 H         4.381738         0.522281        -0.139992
 H         4.674540         2.129053        -1.553764
 H         3.108106         1.785478        -2.399058
 H         3.405338         3.948915        -0.257615
 H         2.132483         3.824670        -1.552313
 H         2.462538         1.030448         1.506781
