19
Iteration:   207charge 0 multiplicity 1
 C        -0.105398         0.116477        -0.195993
 C         1.352066         0.148159        -0.054711
 O         2.180831        -1.045079        -0.010523
 C         2.381146        -0.141585        -1.135359
 C         3.411348         0.797851        -0.508665
 C         3.659762         2.047894        -1.364701
 C         2.470266         2.941057        -1.154375
 O         2.068510         2.552809         0.211508
 C         2.323420         1.175067         0.532113
 H        -0.438281        -0.478029         0.691598
 H        -0.534860         1.137724        -0.242005
 H        -0.360386        -0.431354        -1.120553
 H         2.268746        -0.381158        -2.235448
 H         4.282296         0.282198        -0.203341
 H         4.580818         2.602791        -1.112860
 H         3.716843         1.809324        -2.429444
 H         2.606082         4.038235        -1.134109
 H         1.635822         2.707411        -1.863209
 H         2.580097         1.017059         1.648019
