19
Iteration:  3337
 C        -0.055869         0.246756        -0.146191
 C         1.447288         0.141998        -0.196576
 O         2.165881        -1.089647        -0.007727
 C         2.580634        -0.291098        -1.113612
 C         3.488703         0.791273        -0.493812
 C         3.607690         2.084925        -1.350179
 C         2.247701         2.885103        -1.106241
 O         1.935059         2.581674         0.227832
 C         2.318490         1.194066         0.460328
 H        -0.409637        -0.014779         0.884161
 H        -0.322657         1.295601        -0.586821
 H        -0.365467        -0.437296        -0.925219
 H         2.733925        -0.765530        -2.085040
 H         4.515868         0.467717        -0.216868
 H         4.228257         2.601266        -0.725697
 H         3.933806         2.110859        -2.373615
 H         2.500761         3.951072        -1.251150
 H         1.440306         2.453030        -1.746706
 H         2.745203         1.271599         1.491802
