19
Iteration:  2069
 C        -0.042168         0.234821        -0.300790
 C         1.437307         0.082477        -0.124613
 O         2.226305        -1.203017         0.025460
 C         2.546579        -0.290067        -1.033918
 C         3.445296         0.857620        -0.506148
 C         3.613035         2.055149        -1.442687
 C         2.362022         2.963214        -1.077162
 O         1.860948         2.570488         0.267811
 C         2.318120         1.284615         0.499182
 H        -0.581518         0.487001         0.704954
 H        -0.174366         1.264592        -0.887296
 H        -0.490130        -0.617948        -0.798854
 H         2.726536        -0.535923        -2.092769
 H         4.313165         0.408569        -0.058450
 H         4.515449         2.602961        -1.251090
 H         3.427987         1.788075        -2.515289
 H         2.671820         4.043295        -1.009768
 H         1.617456         2.862132        -1.846049
 H         2.648432         1.001549         1.532917
