19
Iteration:   441
 C        -0.131164         0.248569        -0.077163
 C         1.438188         0.140479        -0.283518
 O         2.198238        -1.076072         0.001746
 C         2.520273        -0.278315        -1.153230
 C         3.306766         0.814592        -0.584384
 C         3.690369         2.044466        -1.384192
 C         2.460859         2.927481        -1.060396
 O         1.990162         2.559945         0.290076
 C         2.288182         1.222003         0.436621
 H        -0.316204        -0.102282         0.942476
 H        -0.557582         1.219150        -0.474277
 H        -0.502788        -0.542748        -0.758453
 H         2.572626        -0.798643        -2.050298
 H         4.031593         0.583255         0.107299
 H         4.677154         2.436945        -1.074309
 H         3.719412         1.795414        -2.448506
 H         2.677898         3.965509        -0.834317
 H         1.566416         2.742411        -1.651027
 H         2.472392         0.974472         1.474162
