19
Iteration:  1043
 C        -0.044191         0.102673        -0.164727
 C         1.417333         0.009779        -0.114680
 O         2.067546        -1.216093        -0.140187
 C         2.485244        -0.091507        -1.048711
 C         3.497478         0.888614        -0.449770
 C         3.719471         2.077170        -1.356958
 C         2.357929         2.817937        -1.201423
 O         1.960871         2.675661         0.178075
 C         2.358609         1.310499         0.605138
 H        -0.433637        -0.277045         0.809013
 H        -0.426424         1.143768        -0.111533
 H        -0.547868        -0.423356        -1.054125
 H         2.522749        -0.354654        -2.195987
 H         4.362006         0.436167         0.087847
 H         4.521423         2.616033        -0.939865
 H         3.996028         1.866007        -2.396661
 H         2.343736         3.971296        -1.359289
 H         1.453123         2.409364        -1.727455
 H         2.486796         1.320717         1.681541
