19
Iteration:  3168
 C        -0.097013         0.243177        -0.187422
 C         1.455121         0.177611        -0.068387
 O         2.119608        -1.052482        -0.079518
 C         2.549146        -0.158961        -1.093974
 C         3.512087         0.849168        -0.459164
 C         3.638579         2.194450        -1.347271
 C         2.261734         2.654392        -1.251146
 O         1.955919         2.487407         0.242701
 C         2.415673         1.195177         0.587503
 H        -0.731074         0.048867         0.659162
 H        -0.324933         1.210519        -0.475549
 H        -0.319300        -0.513991        -1.013497
 H         2.552799        -0.372678        -2.191307
 H         4.605991         0.586593        -0.226576
 H         4.435867         2.839457        -0.883929
 H         3.802008         1.983475        -2.386309
 H         2.167731         3.709441        -1.545267
 H         1.391633         2.161666        -1.708863
 H         2.623197         0.971263         1.634048
