19
Iteration:  3545
 C        -0.060312         0.225747        -0.234623
 C         1.437017        -0.026267        -0.203295
 O         2.194533        -1.144968         0.196960
 C         2.669018        -0.364331        -1.022820
 C         3.352230         0.950630        -0.562545
 C         3.403974         2.073542        -1.597188
 C         2.665387         3.169786        -0.800856
 O         1.787979         2.461230         0.074576
 C         2.334114         1.222037         0.402768
 H        -0.468600         0.347852         0.727302
 H        -0.301685         1.047070        -0.923921
 H        -0.561914        -0.687034        -0.652544
 H         2.693014        -0.998136        -1.967537
 H         4.347159         0.768267        -0.138934
 H         4.371210         2.524741        -2.032382
 H         2.745956         1.559349        -2.388754
 H         3.452012         3.729624        -0.276111
 H         1.979198         3.828622        -1.328888
 H         2.636375         1.242344         1.491461
