19
Iteration:  3966charge 0 multiplicity 1
 C        -0.226242        -0.153985        -0.088020
 C         1.347297         0.110295        -0.206075
 O         2.201430        -1.106384        -0.027060
 C         2.536053        -0.231154        -1.052321
 C         3.372647         0.890264        -0.586160
 C         3.692097         2.067747        -1.451281
 C         2.602962         3.069056        -1.061207
 O         1.912041         2.636281         0.205616
 C         2.313002         1.321732         0.468503
 H        -0.370942        -0.753042         0.931775
 H        -0.585914         0.889760         0.232227
 H        -0.946356        -0.568991        -0.713256
 H         2.571051        -0.545903        -2.026680
 H         4.307517         0.454531        -0.208439
 H         4.715497         2.401485        -1.019016
 H         3.978744         1.821357        -2.512645
 H         2.806620         4.166689        -0.827790
 H         1.894900         3.100912        -1.877196
 H         2.392485         1.116187         1.506167
