19
Iteration:  2118charge 0 multiplicity 1
 C        -0.129538        -0.007849        -0.230892
 C         1.391873         0.193528        -0.188951
 O         2.126152        -1.044828         0.030741
 C         2.473337        -0.254459        -1.114348
 C         3.505909         0.858715        -0.601417
 C         3.726282         2.101409        -1.325429
 C         2.370447         2.865954        -1.116239
 O         1.995305         2.710610         0.268710
 C         2.333588         1.229195         0.539623
 H        -0.413819        -0.511590         0.633165
 H        -0.740795         0.795646        -0.238518
 H        -0.281278        -0.711220        -1.075499
 H         2.282861        -0.748402        -2.050649
 H         4.448436         0.404296        -0.168858
 H         4.460798         2.760935        -0.725357
 H         3.956755         2.032545        -2.382111
 H         2.357900         3.843547        -1.523685
 H         1.633338         2.274008        -1.688945
 H         2.526495         0.828469         1.514580
