19
Iteration:  1242
 C        -0.026743         0.313143        -0.301715
 C         1.414247         0.112432        -0.036542
 O         2.230570        -1.114287        -0.003108
 C         2.482565        -0.149965        -1.059458
 C         3.468003         0.856541        -0.492736
 C         3.621769         2.126913        -1.399756
 C         2.289071         2.768558        -1.177164
 O         1.894859         2.526652         0.238569
 C         2.396253         1.114605         0.577407
 H        -0.665910        -0.125234         0.565723
 H        -0.200046         1.441054        -0.486288
 H        -0.334078        -0.154228        -1.299417
 H         2.516079        -0.477442        -2.114907
 H         4.440564         0.366728        -0.189084
 H         4.422493         2.800185        -1.052168
 H         3.766382         1.767341        -2.373864
 H         2.422284         3.868050        -1.285474
 H         1.490303         2.420476        -1.852110
 H         2.628156         1.228141         1.637569
