19
Iteration:  2535charge 0 multiplicity 1
 C        -0.025114        -0.019191        -0.314161
 C         1.425587         0.113494        -0.182266
 O         2.196027        -1.134356         0.234070
 C         2.501572        -0.269408        -1.008164
 C         3.371186         0.853880        -0.558335
 C         3.528349         2.012780        -1.535371
 C         2.674872         3.228103        -0.815590
 O         1.779352         2.566316         0.031083
 C         2.324346         1.215930         0.380452
 H        -0.332213        -0.543417         0.658631
 H        -0.470390         1.070853        -0.310319
 H        -0.470721        -0.679869        -1.067518
 H         2.318206        -0.788250        -1.932760
 H         4.351018         0.469209        -0.193181
 H         4.624646         2.379972        -1.566479
 H         3.026899         1.922270        -2.431656
 H         3.305733         3.896437        -0.232268
 H         2.179518         3.805424        -1.606726
 H         2.480775         1.370519         1.470560
