19
Iteration:  2543
 C        -0.038820        -0.021480        -0.288929
 C         1.402821         0.102563        -0.144334
 O         2.209113        -1.102102         0.239343
 C         2.499848        -0.308969        -1.004300
 C         3.398082         0.808503        -0.656645
 C         3.527332         2.066474        -1.478861
 C         2.738656         3.244811        -0.817321
 O         1.738491         2.591282         0.003684
 C         2.277661         1.188258         0.435853
 H        -0.397320        -0.411167         0.598375
 H        -0.599200         0.861847        -0.436037
 H        -0.177530        -0.645971        -1.178559
 H         2.613015        -0.782135        -2.033297
 H         4.354595         0.534646        -0.184250
 H         4.510068         2.192527        -1.863107
 H         2.946744         1.938403        -2.476761
 H         3.540334         3.867009        -0.355703
 H         2.126200         3.904852        -1.369941
 H         2.480463         1.195345         1.498619
