19
Iteration:  4748charge 0 multiplicity 1
 C        -0.086424        -0.020819        -0.283121
 C         1.422339         0.136467        -0.150677
 O         2.176916        -1.068193         0.108554
 C         2.575003        -0.272978        -1.018890
 C         3.437389         0.920361        -0.566934
 C         3.226227         1.984781        -1.580438
 C         2.823541         3.158110        -0.769576
 O         1.847436         2.519406         0.145589
 C         2.299127         1.209899         0.443937
 H        -0.515146        -0.528907         0.521771
 H        -0.490846         1.017409        -0.741192
 H         0.016919        -0.770540        -1.121019
 H         2.497104        -0.621605        -2.118630
 H         4.483431         0.930799        -0.172623
 H         4.201233         2.220906        -1.967056
 H         2.603290         1.826487        -2.479088
 H         3.666600         3.563485        -0.245866
 H         2.444874         4.049787        -1.470422
 H         2.563110         1.145266         1.473378
