19
Iteration:  3745charge 0 multiplicity 1
 C        -0.023952         0.106791        -0.100596
 C         1.486104         0.040299        -0.191481
 O         2.188859        -1.114793         0.104939
 C         2.562533        -0.305623        -1.062102
 C         3.445537         0.892730        -0.573032
 C         3.501066         2.049104        -1.584876
 C         2.723343         3.183267        -0.775676
 O         1.711440         2.481912         0.045981
 C         2.196809         1.233211         0.382345
 H        -0.259857         0.031509         0.914949
 H        -0.452354         1.095989        -0.383180
 H        -0.535542        -0.670931        -0.672906
 H         2.349508        -0.589689        -2.110704
 H         4.261258         0.585948         0.056721
 H         4.580241         2.167756        -1.605162
 H         3.238899         1.803286        -2.704704
 H         3.336958         3.968010        -0.269786
 H         2.146886         3.675242        -1.582930
 H         2.459126         1.100359         1.433774
