19
Iteration:  3938
 C        -0.033164        -0.138055        -0.145884
 C         1.419070         0.166153        -0.122504
 O         2.166751        -1.048371         0.050889
 C         2.440518        -0.260690        -1.105910
 C         3.386093         0.826897        -0.580958
 C         3.585843         2.086312        -1.408609
 C         2.661523         3.116239        -0.915301
 O         1.922278         2.593303         0.106552
 C         2.255634         1.300003         0.375526
 H        -0.235900        -0.438461         0.850947
 H        -0.631247         0.725030        -0.180425
 H        -0.475902        -0.954553        -0.841605
 H         2.308751        -0.751524        -2.156530
 H         4.198567         0.348427        -0.013775
 H         4.603956         2.381346        -1.547312
 H         3.190472         1.768580        -2.355296
 H         2.951462         4.070635        -0.495435
 H         1.979461         3.255456        -1.824033
 H         2.336036         1.166457         1.514857
