19
Iteration:  1818
 C        -0.034366         0.003446        -0.214875
 C         1.404608         0.219780        -0.191097
 O         2.098239        -1.075902        -0.012353
 C         2.549568        -0.213712        -1.165285
 C         3.453146         0.821340        -0.407828
 C         3.629149         2.033377        -1.401274
 C         2.392091         2.928111        -1.092199
 O         1.987235         2.651291         0.258846
 C         2.263308         1.234047         0.532824
 H        -0.478779        -0.040303         0.781923
 H        -0.584143         0.829832        -0.700125
 H        -0.009439        -0.802088        -0.837543
 H         2.766109        -0.696265        -2.068598
 H         4.426002         0.598426        -0.029800
 H         4.654077         2.517594        -1.341577
 H         3.594384         1.792653        -2.466375
 H         2.698711         3.988478        -1.204153
 H         1.686880         2.653971        -1.806676
 H         2.219581         1.085379         1.640843
