19
Iteration:  3371
 C         0.031212         0.387001        -0.170258
 C         1.448573         0.103466        -0.007067
 O         2.136472        -1.101338        -0.145213
 C         2.508999        -0.162209        -1.094946
 C         3.531957         0.912274        -0.434876
 C         3.675394         2.120127        -1.377069
 C         2.262476         2.690893        -1.151691
 O         1.860533         2.455989         0.184727
 C         2.396803         1.183606         0.566712
 H        -0.545301         0.217001         0.760340
 H        -0.375977         1.377676        -0.575317
 H        -0.281317        -0.503034        -0.817166
 H         2.596568        -0.372781        -2.190538
 H         4.377400         0.368247        -0.112559
 H         4.314294         2.781458        -0.978379
 H         3.936722         2.144217        -2.416206
 H         1.962210         3.681786        -1.463920
 H         1.600351         2.072082        -1.834621
 H         2.434417         1.177147         1.657979
