19
Iteration:  2895charge 0 multiplicity 1
 C        -0.014574         0.015853        -0.239791
 C         1.451016         0.064534        -0.130118
 O         2.179336        -1.119951         0.088134
 C         2.569339        -0.328421        -1.023792
 C         3.351621         0.850249        -0.591581
 C         3.468994         1.971120        -1.577528
 C         2.696319         3.179757        -0.810127
 O         1.773023         2.623353         0.079989
 C         2.281443         1.299668         0.500393
 H        -0.355007        -0.358954         0.747868
 H        -0.519736         1.034708        -0.481439
 H        -0.195271        -0.664148        -1.110383
 H         2.640914        -0.870376        -1.977361
 H         4.436950         0.659506        -0.196095
 H         4.512683         2.255055        -1.864025
 H         2.881238         1.897623        -2.550631
 H         3.486162         3.851107        -0.284277
 H         2.140820         3.849093        -1.462814
 H         2.310088         1.102496         1.590442
