19
Iteration:  1345
 C        -0.118820        -0.020029        -0.179361
 C         1.393596         0.120168         0.005765
 O         2.203586        -1.141908         0.014672
 C         2.351221        -0.208034        -1.076300
 C         3.424903         0.827964        -0.552755
 C         3.686664         2.119423        -1.317800
 C         2.517080         3.019494        -1.105868
 O         1.938785         2.606717         0.050837
 C         2.302753         1.222588         0.467353
 H        -0.589920        -0.227711         0.784415
 H        -0.386707         0.968477        -0.565638
 H        -0.069278        -0.925143        -0.798077
 H         2.310668        -0.542561        -2.071522
 H         4.228190         0.307268        -0.085784
 H         4.511990         2.665668        -0.803975
 H         3.933082         2.247179        -2.435639
 H         2.823832         4.070100        -0.979705
 H         1.833116         3.096024        -1.889530
 H         2.668151         1.366051         1.532149
