19
Iteration:  3729
 C        -0.112741         0.165073        -0.106193
 C         1.432741         0.080711        -0.133469
 O         2.217968        -1.119287         0.113144
 C         2.533473        -0.259598        -1.102880
 C         3.452385         0.848040        -0.580959
 C         3.540878         2.137347        -1.463680
 C         2.657196         3.142298        -0.810224
 O         1.710385         2.404824        -0.084083
 C         2.342580         1.191729         0.419745
 H        -0.435972         0.229894         1.019217
 H        -0.287904         1.163671        -0.500491
 H        -0.537212        -0.735571        -0.656185
 H         2.656444        -1.011457        -1.890497
 H         4.489964         0.420988        -0.376702
 H         4.480978         2.557119        -1.892469
 H         2.982790         1.848731        -2.300780
 H         3.244035         3.632843        -0.025607
 H         2.107384         3.883789        -1.405238
 H         2.514691         1.211514         1.516748
