19
Iteration:  2897
 C        -0.006193         0.029768        -0.229683
 C         1.442165         0.067965        -0.136508
 O         2.180486        -1.120958         0.075125
 C         2.564662        -0.327246        -1.018261
 C         3.369621         0.842228        -0.589637
 C         3.455629         1.964606        -1.570849
 C         2.691591         3.197173        -0.811538
 O         1.780996         2.617781         0.084577
 C         2.273122         1.312944         0.497051
 H        -0.382373        -0.415236         0.714407
 H        -0.464079         0.961399        -0.452046
 H        -0.193209        -0.659636        -1.103337
 H         2.682348        -0.914434        -1.971521
 H         4.395666         0.660465        -0.168016
 H         4.525493         2.274191        -1.840864
 H         2.905412         1.782762        -2.637583
 H         3.452876         3.823106        -0.274039
 H         2.136655         3.803595        -1.449979
 H         2.296832         1.131087         1.571606
