19
Iteration:   669
 C        -0.093242         0.270843        -0.194048
 C         1.399274         0.100416        -0.282258
 O         2.175462        -1.131447         0.123366
 C         2.529827        -0.304134        -1.194446
 C         3.480058         0.828074        -0.575780
 C         3.574727         2.060904        -1.283233
 C         2.297958         2.935872        -1.067355
 O         2.073497         2.607446         0.285015
 C         2.340007         1.210879         0.386679
 H        -0.250193         0.590544         0.828807
 H        -0.353475         1.028968        -1.004283
 H        -0.633318        -0.640558        -0.479945
 H         2.449554        -0.770195        -2.207729
 H         4.332994         0.294126        -0.164191
 H         4.461818         2.553419        -0.894334
 H         3.883418         1.829015        -2.339198
 H         2.343769         4.075362        -0.962324
 H         1.493982         2.543319        -1.650293
 H         2.185698         1.090159         1.497472
