19
Iteration:  2596
 C        -0.038222        -0.140111        -0.229454
 C         1.421062         0.072717        -0.177897
 O         2.221144        -1.019180         0.158000
 C         2.545750        -0.390258        -1.023379
 C         3.382896         0.844600        -0.594474
 C         3.406281         2.062824        -1.528542
 C         2.937193         3.188637        -0.666222
 O         1.726477         2.617879        -0.057798
 C         2.193693         1.296991         0.383824
 H        -0.459822         0.121832         0.752507
 H        -0.372794         0.556922        -0.935756
 H        -0.384769        -1.173137        -0.571874
 H         2.572099        -0.976527        -2.048587
 H         4.325879         0.764271        -0.037310
 H         4.241513         2.192706        -2.141474
 H         2.490229         2.116596        -2.323181
 H         3.813493         3.478552         0.039359
 H         2.521736         4.107681        -1.161614
 H         2.136271         1.453017         1.483599
