19
Iteration:   912
 C        -0.043884         0.160952        -0.401509
 C         1.468963         0.152393        -0.061716
 O         2.096459        -1.134328         0.061151
 C         2.450656        -0.246921        -1.075024
 C         3.433144         0.806016        -0.535276
 C         3.581251         2.108760        -1.383031
 C         2.327509         2.893252        -1.064867
 O         2.029694         2.623771         0.287030
 C         2.460050         1.245932         0.524928
 H        -0.567704         0.375502         0.475407
 H        -0.350853         0.784593        -1.221090
 H        -0.409151        -0.835906        -0.628385
 H         2.228679        -0.700071        -2.115405
 H         4.386629         0.272125        -0.369496
 H         4.493263         2.633989        -1.115404
 H         3.754342         1.907967        -2.459250
 H         2.234823         3.961529        -1.241886
 H         1.446223         2.656833        -1.802623
 H         2.870902         1.115324         1.508298
