19
Iteration:  3605
 C        -0.115049        -0.153818        -0.247557
 C         1.372549         0.007508        -0.087381
 O         2.239516        -1.074742         0.185886
 C         2.502681        -0.285533        -1.003750
 C         3.420227         0.909317        -0.620458
 C         3.422722         2.097900        -1.639929
 C         2.869157         3.238041        -0.761349
 O         1.842810         2.581386         0.000141
 C         2.204888         1.236114         0.462578
 H        -0.659424        -0.436406         0.759611
 H        -0.422429         0.930448        -0.460072
 H        -0.311081        -0.833541        -1.114238
 H         2.216950        -0.697484        -1.958999
 H         4.365518         0.410741        -0.324627
 H         4.362144         2.390389        -2.089942
 H         2.790134         1.781434        -2.463255
 H         3.728968         3.623913        -0.182338
 H         2.422033         4.091297        -1.292704
 H         2.296143         1.482353         1.555156
