19
Iteration:   695charge 0 multiplicity 1
 C        -0.027736         0.247474        -0.242379
 C         1.389923         0.135125        -0.025089
 O         2.105544        -1.134330        -0.027803
 C         2.473161        -0.309599        -1.061102
 C         3.448341         0.849333        -0.611882
 C         3.644957         2.130785        -1.389026
 C         2.369158         2.919473        -1.121967
 O         1.957366         2.549669         0.262616
 C         2.407931         1.195934         0.534398
 H        -0.641001         0.512717         0.713078
 H        -0.106974         0.991154        -1.105132
 H        -0.356820        -0.701728        -0.780073
 H         2.386552        -0.617261        -2.110764
 H         4.342140         0.356462        -0.211805
 H         4.539697         2.638123        -0.979702
 H         3.939199         1.931634        -2.466934
 H         2.418412         3.961397        -0.949322
 H         1.624747         2.542047        -1.820090
 H         2.610893         1.159962         1.593711
