19
Iteration:  3164
 C        -0.094423         0.234718        -0.191638
 C         1.454138         0.192127        -0.112771
 O         2.106417        -1.085170        -0.058799
 C         2.562728        -0.098888        -1.118416
 C         3.531032         0.862920        -0.449769
 C         3.631949         2.169422        -1.337958
 C         2.269922         2.638342        -1.219041
 O         1.954645         2.493466         0.248573
 C         2.391331         1.230892         0.579131
 H        -0.605006        -0.097861         0.729073
 H        -0.460510         1.290828        -0.436081
 H        -0.296951        -0.494056        -0.918245
 H         2.530400        -0.444340        -2.151264
 H         4.522529         0.485783        -0.369276
 H         4.392571         2.892167        -1.002380
 H         3.980086         1.792221        -2.431659
 H         2.071643         3.661322        -1.487796
 H         1.474273         2.119069        -1.726804
 H         2.689247         0.954194         1.598893
