19
Iteration:  2835
 C        -0.022037        -0.072569        -0.237805
 C         1.407015         0.055192        -0.138690
 O         2.240507        -1.111019         0.225392
 C         2.464704        -0.310218        -1.058241
 C         3.423571         0.905296        -0.606980
 C         3.442412         2.079027        -1.582121
 C         2.863792         3.204374        -0.668418
 O         1.758537         2.588277        -0.020760
 C         2.183787         1.243325         0.274652
 H        -0.456493         0.284534         0.726155
 H        -0.429461         0.556794        -1.000875
 H        -0.417840        -1.100772        -0.227534
 H         2.435433        -1.010604        -1.932708
 H         4.322191         0.622706        -0.174872
 H         4.378542         2.402687        -1.945900
 H         2.757906         2.034636        -2.325391
 H         3.704454         3.269221         0.060285
 H         2.506285         4.273688        -0.977946
 H         2.284315         1.222547         1.359066
