19
Iteration:   673charge 0 multiplicity 1
 C        -0.071171         0.273659        -0.229092
 C         1.406276         0.099768        -0.234731
 O         2.182078        -1.184885         0.122991
 C         2.524575        -0.273944        -1.210379
 C         3.465704         0.799678        -0.560944
 C         3.582880         2.064524        -1.285673
 C         2.285570         2.952410        -1.070820
 O         2.053435         2.626626         0.279061
 C         2.343652         1.227445         0.408883
 H        -0.204234         0.605857         0.893676
 H        -0.401639         1.057435        -1.037431
 H        -0.740753        -0.635476        -0.496804
 H         2.304120        -0.834252        -2.144340
 H         4.417605         0.314612        -0.257778
 H         4.481332         2.555373        -0.861959
 H         3.904990         1.999947        -2.398655
 H         2.542309         4.012116        -1.102112
 H         1.462222         2.521407        -1.673597
 H         2.255949         1.056130         1.473546
