19
Iteration:  2819charge 0 multiplicity 1
 C        -0.156693        -0.092922        -0.144177
 C         1.393478        -0.002004        -0.204240
 O         2.243679        -1.070925         0.131590
 C         2.602456        -0.363808        -1.034183
 C         3.326916         0.846831        -0.626710
 C         3.433224         2.118718        -1.588949
 C         2.943831         3.227746        -0.644754
 O         1.737239         2.589672        -0.058522
 C         2.216753         1.319609         0.433051
 H        -0.588149         0.322590         0.758153
 H        -0.527614         0.490615        -1.032570
 H        -0.384887        -1.129779        -0.347297
 H         2.723410        -0.851959        -1.985476
 H         4.344067         0.664775        -0.101250
 H         4.526683         2.200368        -1.977512
 H         2.666508         1.908112        -2.506193
 H         3.609033         3.649504         0.083299
 H         2.630440         4.010241        -1.248575
 H         2.412625         1.231247         1.531807
