19
Iteration:  2000
 C        -0.029531         0.123942        -0.387368
 C         1.417061         0.145463        -0.255653
 O         2.191239        -1.119448         0.155381
 C         2.560265        -0.294749        -1.042755
 C         3.417169         0.773148        -0.574579
 C         3.540649         2.146585        -1.352098
 C         2.277970         2.955876        -1.101035
 O         2.103633         2.628547         0.335296
 C         2.277985         1.219186         0.438895
 H        -0.558975         0.258114         0.602351
 H        -0.322076         1.104440        -0.873136
 H        -0.323472        -0.832060        -1.008034
 H         2.476068        -0.993573        -1.853407
 H         4.348038         0.461828        -0.089488
 H         4.355226         2.725214        -1.000012
 H         3.635153         1.831225        -2.379910
 H         2.542280         3.990538        -1.180989
 H         1.352943         2.773951        -1.657730
 H         2.479156         1.147115         1.522449
