19
Iteration:  1627
 C        -0.012441        -0.016895        -0.036612
 C         1.385400         0.126769        -0.142674
 O         2.172684        -1.172782        -0.060616
 C         2.497576        -0.212572        -1.070710
 C         3.380906         0.854338        -0.484163
 C         3.780551         2.035483        -1.339742
 C         2.573515         3.070053        -1.130933
 O         1.778809         2.610549         0.046095
 C         2.203086         1.291739         0.529419
 H        -0.469923        -0.222468         0.938813
 H        -0.417904         0.982539        -0.255942
 H        -0.406512        -0.759210        -0.810763
 H         2.519559        -0.415009        -2.097957
 H         4.362403         0.414289        -0.228723
 H         4.734336         2.313185        -0.832267
 H         3.914209         1.817775        -2.526116
 H         2.907195         4.072900        -0.904753
 H         1.847504         3.144464        -1.935428
 H         2.308864         1.303698         1.614588
