19
Iteration:   597
 C        -0.103939         0.176044        -0.307869
 C         1.338006         0.130145        -0.048813
 O         2.244981        -1.192200         0.005098
 C         2.441269        -0.189871        -1.095950
 C         3.398029         0.823439        -0.575314
 C         3.666783         2.019430        -1.442386
 C         2.388206         2.893047        -1.089230
 O         2.043281         2.657183         0.302890
 C         2.308770         1.260740         0.574753
 H        -0.677129        -0.279712         0.560242
 H        -0.181778         1.306436        -0.211460
 H        -0.308828        -0.259198        -1.310819
 H         2.113647        -0.565862        -2.093496
 H         4.427754         0.367238        -0.422813
 H         4.652491         2.456912        -1.196857
 H         3.684735         1.870138        -2.574035
 H         2.634805         3.956672        -1.199374
 H         1.348535         2.625422        -1.612878
 H         2.686293         1.170395         1.590393
