19
Iteration:   607
 C        -0.014436         0.177049        -0.279431
 C         1.458367         0.115648        -0.029766
 O         2.204474        -1.168552        -0.050873
 C         2.383685        -0.199629        -1.071779
 C         3.343469         0.819045        -0.569099
 C         3.526641         2.006111        -1.451030
 C         2.430845         2.889558        -1.095808
 O         2.099346         2.652564         0.293006
 C         2.305526         1.285944         0.626111
 H        -0.792532        -0.289212         0.416720
 H        -0.469216         1.154090        -0.680294
 H        -0.211321        -0.420824        -1.237676
 H         2.318566        -0.421472        -2.153293
 H         4.364771         0.521834        -0.232807
 H         4.371957         2.560808        -1.015996
 H         3.820079         1.716288        -2.512435
 H         2.729522         3.940206        -1.206432
 H         1.579851         2.649482        -1.864752
 H         2.457958         1.164536         1.702713
