19
Iteration:  2561
 C        -0.106143        -0.102364        -0.286722
 C         1.396379         0.077577        -0.100672
 O         2.226587        -1.042051         0.177623
 C         2.547194        -0.365196        -1.022814
 C         3.412409         0.896387        -0.558196
 C         3.460960         2.045367        -1.620140
 C         2.823083         3.175793        -0.721006
 O         1.777953         2.543044         0.011179
 C         2.244860         1.314247         0.382426
 H        -0.742941        -0.346979         0.671573
 H        -0.420104         0.893878        -0.620664
 H        -0.399827        -0.865502        -1.057336
 H         2.374064        -1.062333        -1.856147
 H         4.384508         0.636757        -0.170863
 H         4.433897         2.481042        -1.843583
 H         2.748533         2.030516        -2.516049
 H         3.561249         3.599437         0.044432
 H         2.472604         4.059525        -1.411263
 H         2.401427         1.498498         1.493324
