19
Iteration:  3046charge 0 multiplicity 1
 C        -0.076848        -0.027249        -0.154746
 C         1.364584         0.097127        -0.197407
 O         2.168500        -1.167319         0.030054
 C         2.528349        -0.217023        -1.036612
 C         3.383990         0.892861        -0.517091
 C         3.658215         2.140966        -1.522752
 C         2.646080         3.093823        -0.932146
 O         1.826032         2.568817         0.140682
 C         2.257413         1.230350         0.490380
 H        -0.396832         0.156540         0.875259
 H        -0.526074         0.847155        -0.755342
 H        -0.451209        -1.043844        -0.337679
 H         2.679690        -0.666412        -2.021814
 H         4.255298         0.233198        -0.182775
 H         4.695721         2.497980        -1.679323
 H         3.380652         1.734860        -2.545543
 H         2.917380         4.101193        -0.674311
 H         1.944889         3.268823        -1.854680
 H         2.674862         1.360310         1.520162
