19
Iteration:   918
 C        -0.034244         0.147170        -0.414351
 C         1.478972         0.185419        -0.043727
 O         2.081711        -1.126122         0.061438
 C         2.478255        -0.187892        -1.093877
 C         3.516822         0.814931        -0.541614
 C         3.559686         2.070634        -1.443829
 C         2.351645         2.873976        -1.088699
 O         1.988567         2.609878         0.285342
 C         2.416570         1.216536         0.578548
 H        -0.715713         0.348116         0.512340
 H        -0.439324         0.884063        -1.177792
 H        -0.322989        -0.905220        -0.619328
 H         2.102759        -0.591754        -1.961535
 H         4.443931         0.243932        -0.441500
 H         4.476183         2.601465        -1.082521
 H         3.643052         1.898353        -2.514148
 H         2.486865         4.000346        -1.093265
 H         1.446878         2.668893        -1.607653
 H         2.779775         1.109325         1.646177
