19
Iteration:  1578charge 0 multiplicity 1
 C        -0.075175        -0.092685        -0.112238
 C         1.383062         0.111630        -0.149872
 O         2.149012        -1.068254         0.073956
 C         2.429408        -0.256523        -1.100770
 C         3.432651         0.838323        -0.560155
 C         3.763884         2.120955        -1.370713
 C         2.646288         3.042489        -1.007874
 O         1.819345         2.602897         0.022066
 C         2.231549         1.304286         0.425220
 H        -0.349316        -0.588433         0.797573
 H        -0.759160         0.720662         0.029948
 H        -0.449015        -0.845803        -0.726455
 H         2.345800        -0.871237        -2.082634
 H         4.362192         0.480119        -0.093535
 H         4.644952         2.587706        -0.927547
 H         3.841978         1.938344        -2.432539
 H         3.064312         4.056474        -0.698877
 H         1.897606         3.335919        -1.783378
 H         2.396059         1.259202         1.519197
