19
Iteration:  3387charge 0 multiplicity 1
 C        -0.042782         0.262825        -0.181090
 C         1.486513         0.205493        -0.041585
 O         2.155102        -1.134222        -0.151757
 C         2.499867        -0.073206        -1.104940
 C         3.554422         0.798169        -0.479690
 C         3.616924         2.076582        -1.242467
 C         2.196073         2.671188        -1.235071
 O         1.867874         2.515678         0.193857
 C         2.446120         1.242646         0.605031
 H        -0.548490         0.210329         0.790097
 H        -0.147410         1.216493        -0.638991
 H        -0.442976        -0.341018        -1.009111
 H         2.249212        -0.294805        -2.125526
 H         4.584141         0.401111        -0.151547
 H         4.444012         2.839354        -0.777962
 H         3.982385         1.755654        -2.262030
 H         2.315129         3.760351        -1.402348
 H         1.459142         2.232744        -1.925588
 H         2.883054         1.351349         1.618082
