19
Iteration:   777
 C        -0.159411         0.116684        -0.099269
 C         1.355679         0.210379        -0.181422
 O         2.079807        -1.000976         0.033144
 C         2.582351        -0.303590        -1.138691
 C         3.483667         0.777000        -0.601656
 C         3.731450         2.123606        -1.331398
 C         2.358928         2.895397        -1.100317
 O         2.027001         2.559192         0.215035
 C         2.312694         1.219205         0.434550
 H        -0.451747        -0.696000         0.506968
 H        -0.661910         0.922207         0.392722
 H        -0.525946        -0.265980        -1.015296
 H         2.444481        -0.911146        -2.084238
 H         4.378652         0.410822        -0.008584
 H         4.346875         2.759789        -0.686408
 H         4.156927         2.135322        -2.324523
 H         2.483527         4.012859        -1.365887
 H         1.782071         2.657904        -2.075063
 H         2.588215         1.028016         1.536512
