19
Iteration:  2385
 C        -0.053877         0.106467        -0.239910
 C         1.365115         0.147942        -0.204787
 O         2.087391        -1.115971        -0.068091
 C         2.553432        -0.121180        -1.047684
 C         3.500369         0.870095        -0.428805
 C         3.676685         2.115699        -1.380549
 C         2.325067         2.752601        -1.222059
 O         1.972911         2.575200         0.278208
 C         2.319973         1.283540         0.595161
 H        -0.309456        -0.149688         0.786012
 H        -0.513060         1.084989        -0.433688
 H        -0.469255        -0.595143        -0.874664
 H         2.653492        -0.268805        -2.092203
 H         4.455847         0.539145         0.023497
 H         4.641865         2.674449        -1.235775
 H         4.001161         1.666851        -2.386288
 H         2.423614         3.859206        -1.163383
 H         1.487795         2.501069        -1.816931
 H         2.652287         0.924948         1.606479
