19
Iteration:  1682
 C        -0.042375         0.231187        -0.238218
 C         1.464333         0.136143        -0.175789
 O         2.174511        -1.080588         0.058466
 C         2.448124        -0.275624        -1.146481
 C         3.489790         0.809443        -0.495207
 C         3.679879         2.149248        -1.237738
 C         2.290052         2.779426        -1.191698
 O         1.924705         2.586545         0.250974
 C         2.350670         1.232788         0.457850
 H        -0.497179         0.189641         0.719775
 H        -0.478777         1.079958        -0.763834
 H        -0.412904        -0.637015        -0.849643
 H         2.385647        -0.716869        -2.134556
 H         4.447029         0.430440        -0.106996
 H         4.470784         2.789939        -0.806466
 H         4.007894         2.158172        -2.379777
 H         2.403979         3.834453        -1.335481
 H         1.510932         2.357671        -1.826624
 H         2.644157         1.111791         1.495543
