19
Iteration:  3632charge 0 multiplicity 1
 C        -0.061387        -0.248959        -0.101076
 C         1.306071         0.137123        -0.242116
 O         2.172055        -1.063222         0.119430
 C         2.571764        -0.334023        -1.025537
 C         3.312139         0.901332        -0.642822
 C         3.469684         1.983137        -1.534515
 C         2.893482         3.264609        -0.759456
 O         1.817289         2.687063         0.087315
 C         2.220880         1.288050         0.342887
 H        -0.323090        -0.600771         0.835926
 H        -0.667284         0.607006        -0.224617
 H        -0.230575        -1.065044        -0.839133
 H         2.624296        -0.889702        -1.998813
 H         4.176436         0.437880        -0.145101
 H         4.544249         2.228710        -1.797123
 H         3.041351         1.757529        -2.540380
 H         3.745100         3.815070        -0.246729
 H         2.416043         3.901629        -1.523379
 H         2.515862         1.384759         1.351083
