19
Iteration:   326charge 0 multiplicity 1
 C        -0.078924         0.244616        -0.193035
 C         1.446530         0.189915        -0.196662
 O         1.996548        -1.171276        -0.032690
 C         2.484244        -0.251763        -1.155188
 C         3.575221         0.766893        -0.571263
 C         3.614780         2.189612        -1.355323
 C         2.258780         2.861411        -1.045800
 O         2.050810         2.595889         0.274910
 C         2.421112         1.204829         0.545668
 H        -0.281546         0.283019         0.907619
 H        -0.356814         1.183639        -0.685860
 H        -0.476097        -0.634836        -0.695868
 H         2.465827        -0.941212        -2.020259
 H         4.656110         0.466612        -0.340348
 H         4.537514         2.543557        -0.907575
 H         3.749143         1.832222        -2.428919
 H         2.431397         3.880231        -1.393892
 H         1.585321         2.275087        -1.714689
 H         2.502084         1.298221         1.695288
