19
Iteration:   258
 C        -0.006153         0.167866        -0.127974
 C         1.413349         0.208451        -0.190625
 O         1.988207        -1.129387        -0.016172
 C         2.468746        -0.336487        -1.146581
 C         3.420969         0.874819        -0.543653
 C         3.664977         2.086903        -1.362701
 C         2.354679         2.979112        -1.110997
 O         2.071700         2.540709         0.227563
 C         2.391794         1.206932         0.483453
 H        -0.341385        -0.053984         0.900886
 H        -0.459197         1.124339        -0.417224
 H        -0.364735        -0.568735        -0.863419
 H         2.550600        -0.863496        -2.011197
 H         4.463463         0.557548        -0.015846
 H         4.291648         2.715237        -0.772028
 H         3.961829         1.995357        -2.489749
 H         2.572335         3.988620        -0.902514
 H         1.466978         2.742393        -1.731921
 H         2.631656         0.973747         1.535265
