19
Iteration:  3498charge 0 multiplicity 1
 C        -0.043938        -0.118533        -0.318850
 C         1.391101         0.178389        -0.075317
 O         2.175664        -1.065296         0.083088
 C         2.469516        -0.264883        -1.028024
 C         3.416652         0.857682        -0.501508
 C         3.462573         2.048684        -1.582136
 C         2.613284         3.148244        -0.956312
 O         1.940199         2.555874         0.187224
 C         2.335560         1.238346         0.457876
 H        -0.595754        -0.071447         0.666786
 H        -0.434601         0.806644        -0.781172
 H        -0.328395        -1.004869        -0.741338
 H         2.243860        -0.696260        -2.012130
 H         4.444214         0.694778         0.009720
 H         4.631095         2.296553        -1.573793
 H         3.097660         1.724313        -2.568592
 H         3.240818         3.959855        -0.509257
 H         1.864509         3.468768        -1.682101
 H         2.479603         1.362279         1.550758
