19
Iteration:  1200charge 0 multiplicity 1
 C        -0.061470         0.196011        -0.345996
 C         1.471193         0.148500        -0.193903
 O         2.075735        -1.191357         0.100009
 C         2.554308        -0.324987        -1.064877
 C         3.500749         0.894316        -0.560114
 C         3.595850         2.133626        -1.430608
 C         2.302264         2.884892        -1.079360
 O         1.975038         2.672117         0.340904
 C         2.363953         1.234794         0.482778
 H        -0.448209        -0.460891         0.458254
 H        -0.316054         1.262721        -0.188719
 H        -0.182062        -0.310453        -1.288118
 H         2.550469        -1.095663        -1.839262
 H         4.545282         0.671616        -0.243176
 H         4.551097         2.671683        -1.142318
 H         3.605995         1.842413        -2.476776
 H         2.347255         3.911122        -1.268750
 H         1.533197         2.438546        -1.637475
 H         2.510962         0.821310         1.515146
