19
Iteration:  1998
 C        -0.038508         0.131088        -0.396395
 C         1.421256         0.135017        -0.253292
 O         2.193808        -1.124414         0.155656
 C         2.543726        -0.280880        -1.027464
 C         3.403067         0.788227        -0.590207
 C         3.550235         2.132458        -1.371749
 C         2.263722         2.948441        -1.082473
 O         2.111843         2.633686         0.343861
 C         2.275619         1.238773         0.435529
 H        -0.502460         0.152678         0.606304
 H        -0.309730         1.057247        -0.864456
 H        -0.325797        -0.850286        -0.998338
 H         2.541996        -1.030731        -1.881366
 H         4.365903         0.420993        -0.077765
 H         4.422953         2.716833        -0.880593
 H         3.740768         1.846608        -2.373377
 H         2.582690         3.970695        -1.204058
 H         1.313929         2.747665        -1.732793
 H         2.488837         1.150250         1.484775
