19
Iteration:  1922
 C        -0.106866         0.189725        -0.112524
 C         1.457938         0.127173        -0.166467
 O         2.198443        -1.250106        -0.091760
 C         2.515243        -0.141255        -1.090187
 C         3.459047         0.812761        -0.400983
 C         3.718585         2.113377        -1.319525
 C         2.375879         2.915115        -1.118469
 O         1.884611         2.620546         0.129079
 C         2.276197         1.232861         0.482874
 H        -0.355255        -0.430144         0.752491
 H        -0.330436         1.237689        -0.191408
 H        -0.553971        -0.438442        -1.031182
 H         2.606612        -0.669069        -2.084618
 H         4.435794         0.534382         0.074563
 H         4.534229         2.682508        -0.984570
 H         3.853937         1.717260        -2.296505
 H         2.404009         3.973916        -1.262799
 H         1.640336         2.579433        -1.793571
 H         2.317556         1.331695         1.550384
