19
Iteration:  3413charge 0 multiplicity 1
 C        -0.045274         0.118501        -0.132578
 C         1.432574         0.168993        -0.087271
 O         2.114269        -1.131449        -0.053962
 C         2.515252        -0.142449        -1.119723
 C         3.466887         0.829588        -0.533155
 C         3.690128         2.166495        -1.329684
 C         2.319800         2.791126        -1.170967
 O         1.990027         2.594694         0.236658
 C         2.297897         1.206504         0.485786
 H        -0.470415        -0.156842         0.844898
 H        -0.473223         1.113025        -0.471352
 H        -0.338353        -0.454670        -0.985991
 H         2.428575        -0.639037        -2.119939
 H         4.375721         0.543376         0.038329
 H         4.564505         2.720002        -0.896628
 H         3.962840         1.913253        -2.363874
 H         2.268587         3.862720        -1.396616
 H         1.593757         2.358630        -1.875866
 H         2.527149         1.108295         1.586315
