19
Iteration:  4401charge 0 multiplicity 1
 C        -0.060484         0.043339        -0.283128
 C         1.423762         0.085043        -0.136311
 O         2.156585        -1.175715        -0.103739
 C         2.614854        -0.189329        -1.060094
 C         3.478464         0.836985        -0.532228
 C         3.475342         2.004315        -1.512780
 C         2.493177         3.118511        -0.904550
 O         1.970772         2.583741         0.297005
 C         2.223877         1.237582         0.530738
 H        -0.343961         0.073479         0.766525
 H        -0.338448         1.106127        -0.628629
 H        -0.590659        -0.727223        -0.759445
 H         2.733265        -0.614537        -2.052509
 H         4.448864         0.794648        -0.098449
 H         4.543737         2.381818        -1.595519
 H         3.165730         1.660447        -2.519522
 H         2.837770         4.139696        -0.895192
 H         1.699507         3.205642        -1.565740
 H         2.254192         1.252743         1.668197
