19
Iteration:  2379charge 0 multiplicity 1
 C        -0.052575         0.144650        -0.246763
 C         1.407449         0.115049        -0.216140
 O         2.095829        -1.123380        -0.064906
 C         2.532413        -0.135843        -1.061783
 C         3.498369         0.905400        -0.400062
 C         3.690620         2.057472        -1.391469
 C         2.339004         2.779227        -1.150239
 O         1.933085         2.596652         0.246202
 C         2.344111         1.224813         0.606327
 H        -0.258960        -0.113637         0.819194
 H        -0.422884         1.163338        -0.371160
 H        -0.500023        -0.600448        -1.065972
 H         2.508577        -0.358851        -2.169294
 H         4.500864         0.676297        -0.029748
 H         4.485374         2.797952        -1.286527
 H         3.826780         1.656572        -2.434933
 H         2.524280         3.851381        -1.316999
 H         1.406578         2.517295        -1.769395
 H         2.586502         1.191569         1.679080
