19
Iteration:   485
 C        -0.005598         0.118444        -0.144470
 C         1.436046         0.245744        -0.056559
 O         1.999187        -1.092553        -0.101108
 C         2.363807        -0.226522        -1.106366
 C         3.422740         0.821271        -0.547651
 C         3.695801         2.132389        -1.340181
 C         2.429547         2.880245        -1.102815
 O         1.992757         2.501672         0.231760
 C         2.448156         1.248087         0.489026
 H        -0.647314         0.117774         0.759610
 H        -0.432476         0.885888        -0.887123
 H        -0.396093        -0.772488        -0.675583
 H         2.509418        -0.572962        -2.072150
 H         4.335524         0.378936        -0.274831
 H         4.576490         2.489994        -0.789098
 H         4.034211         2.136735        -2.401637
 H         2.360398         3.989473        -1.127669
 H         1.670042         2.319203        -1.773020
 H         2.863038         1.291380         1.490576
