19
Iteration:  1370
 C        -0.115255         0.043288        -0.144288
 C         1.413635         0.144204        -0.220757
 O         2.086740        -1.066301         0.059924
 C         2.553143        -0.244769        -1.067843
 C         3.493695         0.903114        -0.554216
 C         3.770189         2.051989        -1.409456
 C         2.449550         2.986440        -1.085261
 O         1.826456         2.560620         0.161149
 C         2.286438         1.221841         0.503202
 H        -0.186626        -0.285687         0.854046
 H        -0.463796         1.022948        -0.162585
 H        -0.354091        -0.764525        -0.807181
 H         2.589437        -0.786464        -2.019365
 H         4.313603         0.277072        -0.209521
 H         4.659249         2.686083        -1.223592
 H         3.852905         1.747555        -2.572032
 H         2.756923         4.042885        -0.793075
 H         1.743274         3.232030        -1.820596
 H         2.486725         1.092677         1.588697
