19
Iteration:  3929
 C        -0.030981        -0.111013        -0.150371
 C         1.381775         0.137913        -0.187304
 O         2.175590        -1.089711         0.068577
 C         2.422518        -0.307384        -1.059970
 C         3.383798         0.836768        -0.581411
 C         3.582621         2.026284        -1.472219
 C         2.663707         3.196970        -0.902025
 O         1.834278         2.587785         0.119066
 C         2.344789         1.312409         0.458731
 H        -0.306899        -0.326354         0.850928
 H        -0.568823         0.826447        -0.522878
 H        -0.210812        -0.988662        -0.923862
 H         2.282852        -0.631481        -2.151236
 H         4.393025         0.494343        -0.275153
 H         4.610818         2.190572        -1.439484
 H         3.251386         1.895354        -2.484120
 H         3.157254         4.082710        -0.524815
 H         1.882310         3.540182        -1.700303
 H         2.601342         1.290611         1.534821
