19
Iteration:   268
 C        -0.089793         0.220690        -0.186087
 C         1.438075         0.178100        -0.083444
 O         2.052518        -1.148483        -0.063597
 C         2.458091        -0.266621        -1.074460
 C         3.505553         0.808603        -0.573403
 C         3.651561         2.052740        -1.398988
 C         2.362514         2.943673        -1.070136
 O         1.972306         2.556186         0.254240
 C         2.425683         1.215537         0.493205
 H        -0.568676         0.058492         0.783154
 H        -0.504780         1.155062        -0.594093
 H        -0.402690        -0.647988        -0.787232
 H         2.411254        -0.528885        -2.091808
 H         4.554809         0.473692        -0.163322
 H         4.492317         2.588676        -0.933967
 H         4.011043         1.982492        -2.494482
 H         2.545861         4.013732        -1.122685
 H         1.501670         2.818579        -1.796856
 H         2.773050         1.170150         1.502601
