19
Iteration:  2510charge 0 multiplicity 1
 C        -0.109638         0.073656        -0.183038
 C         1.387593         0.127692        -0.096762
 O         2.182216        -1.127815         0.056248
 C         2.627428        -0.256444        -1.007969
 C         3.430964         0.853646        -0.525449
 C         3.628053         2.030239        -1.506936
 C         2.610074         3.157895        -0.973589
 O         1.744188         2.577010         0.067614
 C         2.286019         1.136670         0.493252
 H        -0.592556        -0.484569         0.540868
 H        -0.450392         1.052085        -0.327287
 H        -0.331714        -0.596705        -1.044555
 H         2.766617        -0.834736        -1.994584
 H         4.421216         0.553198        -0.137710
 H         4.579964         2.430981        -1.543810
 H         3.043594         1.830117        -2.456067
 H         3.269198         3.913903        -0.544869
 H         2.027279         3.599264        -1.755359
 H         2.346318         1.311806         1.518638
