19
Iteration:  1040
 C        -0.001941         0.107075        -0.186390
 C         1.406709         0.025482        -0.115420
 O         2.091930        -1.199189        -0.131892
 C         2.451251        -0.098200        -1.049036
 C         3.471279         0.899676        -0.449286
 C         3.717425         2.076958        -1.331841
 C         2.351276         2.814612        -1.214757
 O         1.964912         2.661999         0.189181
 C         2.364071         1.302189         0.584372
 H        -0.490584        -0.381694         0.735832
 H        -0.441418         1.174534        -0.082763
 H        -0.504607        -0.427416        -1.043095
 H         2.343508        -0.388819        -2.134083
 H         4.323101         0.438293         0.056989
 H         4.568332         2.628559        -0.937020
 H         3.925875         1.781428        -2.415409
 H         2.448411         3.905493        -1.404206
 H         1.513563         2.417218        -1.621885
 H         2.519498         1.358755         1.703253
