19
Iteration:   655
 C        -0.088697         0.219753        -0.194914
 C         1.377678         0.187597        -0.269136
 O         2.132589        -0.998503         0.030581
 C         2.573069        -0.320210        -1.091028
 C         3.432328         0.768691        -0.533079
 C         3.652468         2.142914        -1.424678
 C         2.337655         2.882955        -1.053968
 O         2.064612         2.533952         0.321968
 C         2.270445         1.154681         0.446888
 H        -0.378395         0.499087         0.784250
 H        -0.498168         0.939001        -0.804875
 H        -0.601045        -0.672889        -0.415470
 H         2.689992        -0.955100        -1.963831
 H         4.412636         0.539147        -0.111618
 H         4.525152         2.728419        -1.075993
 H         3.732061         2.053569        -2.475381
 H         2.508582         3.957930        -1.214689
 H         1.499248         2.528972        -1.737853
 H         2.531928         0.824440         1.446991
