19
Iteration:  1571charge 0 multiplicity 1
 C        -0.060959        -0.050034        -0.160592
 C         1.356724         0.079281        -0.074048
 O         2.182240        -1.096087         0.089828
 C         2.387406        -0.271542        -1.095905
 C         3.435865         0.869788        -0.544537
 C         3.780155         2.083563        -1.327106
 C         2.600348         3.143573        -1.020496
 O         1.805009         2.616290         0.044677
 C         2.265177         1.254780         0.349908
 H        -0.209632        -0.630505         0.807325
 H        -0.694224         0.860219        -0.172511
 H        -0.365854        -0.906625        -0.851961
 H         2.100413        -0.742117        -2.000580
 H         4.396475         0.457837        -0.120726
 H         4.831257         2.396691        -0.992747
 H         3.758675         1.797996        -2.499631
 H         3.000958         4.125504        -0.778899
 H         1.894413         3.264321        -1.837822
 H         2.542528         1.191067         1.395226
