19
Iteration:   779charge 0 multiplicity 1
 C        -0.161829         0.107207        -0.105296
 C         1.389395         0.221487        -0.169931
 O         2.079903        -0.983509         0.039496
 C         2.563126        -0.299192        -1.143598
 C         3.470437         0.767748        -0.589358
 C         3.738184         2.130347        -1.314285
 C         2.354989         2.891052        -1.095163
 O         2.014680         2.549902         0.205434
 C         2.333667         1.214941         0.411894
 H        -0.420096        -0.700287         0.502323
 H        -0.691403         0.935493         0.375649
 H        -0.527279        -0.247678        -1.044959
 H         2.427900        -0.877752        -2.036925
 H         4.326162         0.369853        -0.037542
 H         4.380169         2.725775        -0.711860
 H         4.097301         2.137201        -2.377249
 H         2.532815         3.986298        -1.329938
 H         1.755216         2.645168        -2.046146
 H         2.584993         1.010593         1.485887
