19
Iteration:  1788charge 0 multiplicity 1
 C        -0.121208         0.112803        -0.344923
 C         1.388563         0.161575        -0.239450
 O         2.164717        -1.089896         0.174939
 C         2.527959        -0.365518        -1.061403
 C         3.510604         0.852369        -0.548904
 C         3.600977         2.154216        -1.479993
 C         2.366245         2.963441        -1.033517
 O         1.985671         2.585956         0.302289
 C         2.326189         1.195271         0.476952
 H        -0.691484        -0.201143         0.664305
 H        -0.429237         1.187631        -0.717889
 H        -0.412854        -0.628743        -1.166766
 H         2.662255        -1.023599        -1.885316
 H         4.580961         0.823517        -0.193052
 H         4.517171         2.632611        -1.061733
 H         3.686153         1.970784        -2.501226
 H         2.806522         4.002342        -1.093942
 H         1.561090         2.871415        -1.806812
 H         2.355620         0.982876         1.541406
