19
Iteration:  2253
 C        -0.162809         0.014526        -0.267041
 C         1.422510         0.177510        -0.103410
 O         2.091474        -1.087083        -0.104253
 C         2.555408        -0.135835        -1.014846
 C         3.558065         0.816547        -0.488653
 C         3.646292         2.084811        -1.355475
 C         2.346116         2.861453        -1.093646
 O         1.998304         2.640136         0.233364
 C         2.355306         1.255017         0.531912
 H        -0.638563        -0.056081         0.714628
 H        -0.565432         0.837134        -0.904893
 H        -0.184354        -0.921245        -0.696264
 H         2.449920        -0.470338        -2.098821
 H         4.416451         0.281615        -0.101500
 H         4.517460         2.710437        -1.031706
 H         3.625388         1.751135        -2.450484
 H         2.553664         3.948625        -1.252358
 H         1.477903         2.593867        -1.736508
 H         2.497333         1.039371         1.618654
