19
Iteration:   864charge 0 multiplicity 1
 C        -0.067374         0.157456        -0.160838
 C         1.447824         0.258690        -0.236958
 O         2.109740        -1.012831         0.018525
 C         2.549540        -0.250852        -1.120666
 C         3.498563         0.846340        -0.513097
 C         3.645396         2.042508        -1.355283
 C         2.357819         2.852949        -1.074611
 O         1.942197         2.515360         0.261279
 C         2.342588         1.213590         0.428173
 H        -0.463960         0.285892         0.867518
 H        -0.432799         1.015365        -0.788713
 H        -0.553110        -0.694953        -0.676363
 H         2.548826        -0.952919        -1.917048
 H         4.346112         0.354640         0.002291
 H         4.587854         2.539856        -1.151296
 H         3.706328         1.865375        -2.409593
 H         2.367238         3.977926        -1.147857
 H         1.494979         2.653087        -1.741588
 H         2.511849         0.916364         1.516506
