19
Iteration:   885
 C        -0.156074         0.235185        -0.270649
 C         1.426741         0.094170        -0.218452
 O         2.176765        -1.084810         0.111582
 C         2.524193        -0.301675        -1.092475
 C         3.484195         0.791955        -0.602486
 C         3.623678         2.162272        -1.386943
 C         2.307909         2.851139        -1.073661
 O         2.102104         2.610691         0.309478
 C         2.254116         1.183080         0.467742
 H        -0.380523         0.521304         0.867253
 H        -0.529465         0.938819        -1.084681
 H        -0.642311        -0.728772        -0.596435
 H         2.502763        -0.792260        -2.061119
 H         4.528391         0.429006        -0.375919
 H         4.333428         2.871015        -0.843649
 H         4.071108         2.166751        -2.380083
 H         2.386477         3.960554        -1.285425
 H         1.505654         2.494060        -1.789544
 H         2.424828         0.975359         1.572950
