19
Iteration:  3736
 C        -0.043629         0.148517        -0.093697
 C         1.394225         0.073484        -0.178791
 O         2.212407        -1.132787         0.149836
 C         2.516281        -0.259218        -1.116174
 C         3.454387         0.864175        -0.579416
 C         3.566834         2.081828        -1.515197
 C         2.685564         3.168294        -0.812503
 O         1.687917         2.421795        -0.018336
 C         2.312866         1.175681         0.400744
 H        -0.362943         0.051682         0.973852
 H        -0.377216         1.121332        -0.569205
 H        -0.582982        -0.587142        -0.591338
 H         2.713092        -0.730719        -2.117681
 H         4.430509         0.720731        -0.088715
 H         4.557040         2.485457        -1.828157
 H         2.905294         1.897998        -2.420119
 H         3.273240         3.823469        -0.123817
 H         2.160574         3.819487        -1.505491
 H         2.466641         1.173732         1.531271
