19
Iteration:  4331charge 0 multiplicity 1
 C        -0.082487         0.081115        -0.181069
 C         1.429295         0.000190        -0.104356
 O         2.199361        -1.221949         0.020536
 C         2.396057        -0.199522        -1.110534
 C         3.407386         0.937214        -0.563599
 C         3.717996         2.200429        -1.388466
 C         2.454735         3.054701        -1.006144
 O         1.914659         2.504508         0.197411
 C         2.310138         1.259918         0.436054
 H        -0.476579        -0.310914         0.697360
 H        -0.337207         1.128216        -0.376206
 H        -0.427088        -0.502217        -1.099807
 H         2.203368        -0.633357        -2.081030
 H         4.324526         0.373889        -0.280197
 H         4.666235         2.569722        -0.982530
 H         3.826333         2.009370        -2.501513
 H         2.578715         4.107344        -0.876827
 H         1.808895         3.121397        -1.852016
 H         2.643619         1.046366         1.516174
