19
Iteration:  2108
 C        -0.092513         0.015587        -0.218925
 C         1.389199         0.243936        -0.213198
 O         2.132628        -1.047291         0.068687
 C         2.471652        -0.253994        -1.063799
 C         3.424026         0.793433        -0.577092
 C         3.671750         2.160825        -1.324714
 C         2.385030         2.844986        -1.116363
 O         1.975610         2.629326         0.315717
 C         2.403083         1.241857         0.362581
 H        -0.465462        -0.476279         0.624476
 H        -0.546804         0.879445        -0.511076
 H        -0.397750        -0.628580        -1.074431
 H         2.548958        -0.802577        -1.965556
 H         4.380521         0.481548        -0.114778
 H         4.533692         2.611552        -0.739668
 H         4.057545         2.094310        -2.337773
 H         2.353824         3.895278        -1.232812
 H         1.571411         2.371127        -1.758759
 H         2.638990         1.155164         1.412715
