19
Iteration:  4264charge 0 multiplicity 1
 C        -0.205286         0.094415        -0.085145
 C         1.382201         0.080530        -0.143265
 O         2.184973        -1.114885        -0.180342
 C         2.498722        -0.158206        -1.188537
 C         3.505807         0.832118        -0.488714
 C         3.731905         2.170003        -1.227885
 C         2.318593         2.791342        -1.167346
 O         1.988391         2.628929         0.260336
 C         2.392579         1.236821         0.520967
 H        -0.602996        -0.036340         0.933330
 H        -0.588241         0.979739        -0.483947
 H        -0.591089        -0.642056        -0.841118
 H         2.510247        -0.405354        -2.216837
 H         4.438428         0.361438        -0.165319
 H         4.342342         2.937263        -0.786977
 H         4.093223         1.957935        -2.243611
 H         2.199695         3.818878        -1.352098
 H         1.520654         2.405939        -1.723136
 H         2.649039         1.278122         1.586256
