19
Iteration:  2909
 C        -0.049890         0.010826        -0.207707
 C         1.440769         0.161771        -0.170806
 O         2.188984        -1.146283         0.073355
 C         2.555838        -0.311805        -1.036684
 C         3.499880         0.853024        -0.470247
 C         3.378586         2.027536        -1.549628
 C         2.683320         3.183701        -0.895565
 O         1.814198         2.558880         0.128854
 C         2.233328         1.273189         0.396500
 H        -0.546705        -0.471511         0.656516
 H        -0.377904         0.971572        -0.216469
 H        -0.449376        -0.522249        -1.118449
 H         2.622252        -0.801159        -2.069056
 H         4.412042         0.527873         0.019926
 H         4.463566         2.362695        -1.706929
 H         3.059848         1.382968        -2.521043
 H         3.404436         3.804511        -0.355011
 H         2.131561         3.834094        -1.501856
 H         2.555071         1.375142         1.416533
