19
Iteration:  1860charge 0 multiplicity 1
 C        -0.050897         0.089120        -0.178235
 C         1.410283         0.134031        -0.054038
 O         2.157986        -1.083995        -0.076674
 C         2.415404        -0.188527        -1.128541
 C         3.489974         0.864959        -0.528210
 C         3.717848         2.197588        -1.250171
 C         2.410127         2.847448        -1.171484
 O         1.911485         2.554992         0.161003
 C         2.307741         1.217694         0.539399
 H        -0.627957         0.020216         0.733114
 H        -0.424889         1.017629        -0.604003
 H        -0.336204        -0.755594        -0.812192
 H         2.283645        -0.767016        -2.063301
 H         4.354258         0.344291        -0.208734
 H         4.480734         2.741906        -0.600711
 H         4.242636         1.845472        -2.250116
 H         2.536714         3.934842        -1.310776
 H         1.701342         2.398730        -1.992824
 H         2.505034         1.184568         1.644234
