19
Iteration:  4743
 C        -0.082891         0.027591        -0.329851
 C         1.445501         0.159874        -0.143273
 O         2.216339        -1.080435         0.084441
 C         2.544327        -0.289509        -1.015898
 C         3.432213         0.919436        -0.535977
 C         3.219306         1.950701        -1.572315
 C         2.816965         3.118315        -0.764672
 O         1.821158         2.517429         0.136127
 C         2.343512         1.234971         0.456358
 H        -0.590146        -0.438690         0.593008
 H        -0.486433         0.898481        -0.630178
 H        -0.053795        -0.716154        -1.100303
 H         2.566102        -0.469392        -2.046453
 H         4.459029         0.822729        -0.189192
 H         4.159932         2.307667        -2.140533
 H         2.481754         1.879984        -2.396112
 H         3.670816         3.747222        -0.320604
 H         2.369476         3.802454        -1.387541
 H         2.426198         1.158250         1.590933
