19
Iteration:  3402charge 0 multiplicity 1
 C        -0.004792         0.205325        -0.205565
 C         1.469879         0.148168        -0.107827
 O         2.140886        -1.119173        -0.103844
 C         2.431994        -0.173058        -1.109989
 C         3.472503         0.843203        -0.445966
 C         3.657084         2.124761        -1.339891
 C         2.283458         2.762027        -1.183717
 O         1.968685         2.549871         0.175110
 C         2.398879         1.267219         0.616382
 H        -0.385916        -0.139325         0.781650
 H        -0.450984         1.236324        -0.344563
 H        -0.335138        -0.628983        -0.761247
 H         2.319835        -0.431941        -2.197661
 H         4.403325         0.236262        -0.208260
 H         4.295006         2.842382        -0.741569
 H         4.016014         2.011129        -2.366736
 H         2.225569         3.852939        -1.321231
 H         1.549687         2.207857        -1.767049
 H         2.339812         1.235380         1.731803
