19
Iteration:  4617
 C        -0.107719        -0.155993        -0.153486
 C         1.344649         0.141174        -0.160523
 O         2.143577        -1.126334        -0.076762
 C         2.477151        -0.184682        -1.137202
 C         3.372453         0.854161        -0.505927
 C         3.687342         2.052881        -1.449446
 C         2.531133         3.118976        -1.035320
 O         1.965686         2.640512         0.267068
 C         2.358825         1.313710         0.508573
 H        -0.408431        -0.290499         0.832098
 H        -0.704543         0.828146        -0.434248
 H        -0.337471        -1.004314        -0.776618
 H         2.375422        -0.581356        -2.112102
 H         4.286149         0.362304        -0.121763
 H         4.629399         2.207981        -1.126083
 H         3.578566         1.702420        -2.448576
 H         2.875743         4.121563        -0.876763
 H         1.712222         2.959224        -1.739261
 H         2.513269         1.237333         1.586818
