19
Iteration:  4404
 C        -0.070811         0.051603        -0.285051
 C         1.422930         0.082477        -0.157379
 O         2.174046        -1.196370        -0.111735
 C         2.597199        -0.216520        -1.060018
 C         3.470476         0.836635        -0.515942
 C         3.471623         2.010738        -1.516092
 C         2.485297         3.104782        -0.910467
 O         1.988147         2.622067         0.300859
 C         2.229130         1.254174         0.549393
 H        -0.384738         0.093807         0.861450
 H        -0.359658         0.987380        -0.666716
 H        -0.562062        -0.797083        -0.860735
 H         2.697564        -0.546145        -2.057033
 H         4.439374         0.818991        -0.018486
 H         4.480757         2.347836        -1.543144
 H         3.164696         1.664689        -2.464512
 H         2.921494         4.130038        -0.853825
 H         1.600605         3.228660        -1.618871
 H         2.373149         1.213789         1.574021
