19
Iteration:   938
 C        -0.011507         0.165721        -0.322634
 C         1.421216         0.229366        -0.076259
 O         2.136123        -1.025877        -0.024488
 C         2.514493        -0.181942        -1.024160
 C         3.506118         0.822967        -0.511387
 C         3.582814         1.987192        -1.505325
 C         2.370306         2.868639        -1.035313
 O         1.979710         2.507899         0.276942
 C         2.304923         1.233000         0.574640
 H        -0.657685         0.055011         0.657742
 H        -0.325586         1.086762        -0.899927
 H        -0.392043        -0.722461        -0.894839
 H         2.614896        -0.567282        -2.063655
 H         4.444291         0.362395        -0.126131
 H         4.637628         2.506177        -1.709661
 H         3.367882         1.543999        -2.513364
 H         2.372520         3.964468        -0.934586
 H         1.560586         2.911898        -1.766647
 H         2.501261         1.094360         1.656112
