19
Iteration:  3676
 C        -0.144835        -0.093956        -0.074367
 C         1.409145         0.077863        -0.069403
 O         2.276374        -1.105940         0.050638
 C         2.458177        -0.287080        -1.071003
 C         3.371916         0.799101        -0.609875
 C         3.544518         2.065413        -1.492334
 C         2.810706         3.229348        -0.779764
 O         1.751287         2.558398        -0.089165
 C         2.242028         1.296553         0.427429
 H        -0.510472        -0.040829         0.923638
 H        -0.432170         0.806538        -0.553166
 H        -0.325407        -1.041694        -0.635407
 H         2.363621        -0.627190        -2.101186
 H         4.388822         0.648812        -0.244861
 H         4.638426         2.223265        -1.677223
 H         3.180666         2.073422        -2.530667
 H         3.414856         3.748433         0.013603
 H         2.342847         4.031529        -1.403822
 H         2.422931         1.331595         1.478927
