19
Iteration:  4236charge 0 multiplicity 1
 C         0.063204         0.223324        -0.165047
 C         1.505199         0.132546        -0.067993
 O         2.141138        -1.108800        -0.043017
 C         2.394830        -0.236985        -1.169368
 C         3.475190         0.833539        -0.585032
 C         3.675131         2.186810        -1.304160
 C         2.422399         2.909839        -1.069966
 O         1.806284         2.448425         0.190155
 C         2.337398         1.152261         0.553741
 H        -0.435246        -0.107147         0.720668
 H        -0.269304         1.295146        -0.621706
 H        -0.071424        -0.522939        -0.998321
 H         2.193430        -0.476400        -2.240488
 H         4.444599         0.317965        -0.385683
 H         4.440939         2.945473        -0.962518
 H         3.849115         2.059055        -2.426770
 H         2.381338         4.043230        -0.928022
 H         1.574414         2.832049        -1.867345
 H         2.484825         1.198943         1.683380
