19
Iteration:  2085
 C        -0.069695         0.185293        -0.268404
 C         1.455312         0.097318        -0.174567
 O         2.172623        -1.093487         0.103708
 C         2.522154        -0.252112        -1.087068
 C         3.494031         0.828919        -0.558980
 C         3.600616         2.131139        -1.383704
 C         2.375247         2.979281        -1.105861
 O         1.944016         2.591005         0.220463
 C         2.305706         1.097544         0.520208
 H        -0.495313        -0.024641         0.637090
 H        -0.351179         1.005349        -0.765882
 H        -0.571623        -0.595083        -0.889767
 H         2.278746        -0.897952        -1.925660
 H         4.571636         0.618790        -0.250127
 H         4.536715         2.729362        -0.976503
 H         3.885580         1.960965        -2.416978
 H         2.531952         4.039407        -1.106594
 H         1.478408         2.763066        -1.760518
 H         2.305536         1.075996         1.603599
