19
Iteration:  4269charge 0 multiplicity 1
 C        -0.197950         0.072595        -0.056060
 C         1.353297         0.086620        -0.173935
 O         2.187380        -1.108129        -0.203590
 C         2.504214        -0.141806        -1.198458
 C         3.518355         0.820783        -0.433615
 C         3.727240         2.230456        -1.286111
 C         2.351716         2.751079        -1.171712
 O         2.026803         2.653687         0.276021
 C         2.323011         1.219553         0.549965
 H        -0.638895        -0.090934         0.934916
 H        -0.763525         1.052890        -0.499314
 H        -0.548955        -0.705414        -0.773819
 H         2.407913        -0.627464        -2.232745
 H         4.521375         0.461499        -0.126279
 H         4.484345         2.917792        -0.770247
 H         4.079492         2.024959        -2.339437
 H         2.222535         3.869933        -1.377150
 H         1.557633         2.124643        -1.770262
 H         2.533368         1.219670         1.661777
