19
Iteration:    56charge 0 multiplicity 1
 C        -0.197404         0.224705        -0.193732
 C         1.372034         0.124874        -0.218464
 O         2.249329        -1.075399         0.064001
 C         2.476568        -0.176265        -1.097101
 C         3.411480         0.803658        -0.589424
 C         3.665699         2.022455        -1.450941
 C         2.474213         2.933150        -1.108382
 O         2.009623         2.560251         0.310497
 C         2.273926         1.160098         0.554135
 H        -0.682234        -0.102332         0.714558
 H        -0.335813         1.296394        -0.348396
 H        -0.511934        -0.347809        -1.060061
 H         2.480282        -0.637705        -2.131105
 H         4.329835         0.288265        -0.376073
 H         4.643195         2.504670        -1.267219
 H         3.609447         1.706673        -2.472444
 H         2.793257         3.984946        -0.991043
 H         1.636649         2.860282        -1.782384
 H         2.413671         1.021558         1.606542
