19
Iteration:  3124charge 0 multiplicity 1
 C        -0.096951         0.120945        -0.134268
 C         1.412441         0.126669        -0.191830
 O         2.169253        -1.131356        -0.031576
 C         2.544520        -0.211188        -1.098046
 C         3.458976         0.900188        -0.527062
 C         3.582176         2.072377        -1.342751
 C         2.380472         2.897461        -1.176875
 O         1.971550         2.620298         0.245992
 C         2.350248         1.215858         0.512618
 H        -0.408319        -0.475670         0.715765
 H        -0.619951         1.048590        -0.032849
 H        -0.466040        -0.436020        -1.065301
 H         2.694773        -0.774097        -2.046611
 H         4.429410         0.515041        -0.059262
 H         4.383627         2.648890        -0.827091
 H         3.764336         1.751312        -2.328157
 H         2.573804         3.967320        -1.245718
 H         1.619372         2.607615        -1.994851
 H         2.429426         1.303889         1.581380
