19
Iteration:  4757
 C        -0.031059        -0.100084        -0.294329
 C         1.401582         0.085374        -0.145746
 O         2.127434        -1.068330         0.138238
 C         2.592446        -0.276590        -1.042834
 C         3.402474         0.889028        -0.610734
 C         3.320657         2.072686        -1.643775
 C         2.813623         3.210104        -0.760002
 O         1.869531         2.577822         0.155019
 C         2.263387         1.237829         0.441973
 H        -0.513566        -0.437799         0.574139
 H        -0.621288         0.840081        -0.539060
 H        -0.321362        -0.773835        -1.076262
 H         2.533211        -0.952140        -1.871288
 H         4.446963         0.745671        -0.219594
 H         4.372764         2.165918        -1.995842
 H         2.667146         1.667993        -2.450908
 H         3.617067         3.409274        -0.096982
 H         2.324990         4.139961        -1.152522
 H         2.613979         1.072770         1.432812
