19
Iteration:  1602charge 0 multiplicity 1
 C        -0.151064        -0.086464         0.006218
 C         1.315260         0.116750        -0.195922
 O         2.176255        -1.026772        -0.034323
 C         2.544712        -0.197552        -1.080028
 C         3.434805         0.852130        -0.438273
 C         3.792696         2.020632        -1.325222
 C         2.614004         3.171766        -1.082254
 O         1.819886         2.569235         0.022803
 C         2.223988         1.205562         0.381669
 H        -0.329348        -0.537346         0.935582
 H        -0.797460         0.754384         0.129381
 H        -0.573917        -0.802609        -0.646948
 H         2.596438        -0.636309        -2.084613
 H         4.375890         0.485771         0.064711
 H         4.859081         2.347580        -1.123738
 H         3.687895         1.582568        -2.383237
 H         2.881611         4.237371        -0.834962
 H         1.894641         3.234204        -1.893479
 H         2.403620         1.112198         1.446984
