19
Iteration:  4054charge 0 multiplicity 1
 C         0.052802         0.348333        -0.173283
 C         1.514711         0.154278        -0.176533
 O         2.132102        -1.234529        -0.135199
 C         2.585771        -0.101824        -1.122236
 C         3.487251         0.833890        -0.415171
 C         3.517893         2.067121        -1.303682
 C         2.198317         2.733048        -1.090359
 O         1.920853         2.543389         0.214871
 C         2.393290         1.207607         0.516281
 H        -0.245232         0.533438         0.993122
 H        -0.166713         1.369681        -0.563938
 H        -0.409171        -0.450678        -0.705959
 H         2.612613        -0.500403        -2.139211
 H         4.505113         0.570795        -0.110516
 H         4.252672         2.875647        -0.945305
 H         3.703395         1.854791        -2.383953
 H         2.350042         3.850199        -1.394197
 H         1.398703         2.288030        -1.796178
 H         2.385569         1.192251         1.579725
