19
Iteration:  2315
 C        -0.033439         0.187622        -0.357085
 C         1.396665         0.152586        -0.191430
 O         2.138449        -1.081460         0.114585
 C         2.535908        -0.341189        -1.008636
 C         3.468188         0.878377        -0.598429
 C         3.652532         2.175222        -1.385312
 C         2.298156         2.940855        -1.074605
 O         1.937511         2.548642         0.283905
 C         2.400349         1.138432         0.481319
 H        -0.497816        -0.255697         0.543803
 H        -0.403784         1.202993        -0.406136
 H        -0.543250        -0.301466        -1.207953
 H         2.529563        -1.040126        -1.903055
 H         4.296255         0.229027        -0.292795
 H         4.495297         2.818033        -1.041961
 H         3.871665         2.057383        -2.435526
 H         2.468766         3.978510        -1.154981
 H         1.521269         2.642844        -1.783457
 H         2.661279         1.056445         1.554301
