19
Iteration:  3332charge 0 multiplicity 1
 C        -0.048531         0.179244        -0.154020
 C         1.459079         0.192314        -0.227987
 O         2.167927        -1.065742        -0.000581
 C         2.581390        -0.325139        -1.100270
 C         3.436954         0.768702        -0.534156
 C         3.603756         2.109005        -1.376629
 C         2.271300         2.886146        -1.078313
 O         1.965894         2.579652         0.225459
 C         2.277580         1.228244         0.504080
 H        -0.554487         0.009218         0.794813
 H        -0.225408         1.162023        -0.449831
 H        -0.342483        -0.537677        -0.955549
 H         2.645468        -0.905418        -2.030256
 H         4.481995         0.515365        -0.197245
 H         4.420810         2.643746        -0.669820
 H         3.997807         1.999827        -2.425897
 H         2.474965         3.963897        -1.149730
 H         1.441528         2.622761        -1.743805
 H         2.771127         1.285320         1.466777
