19
Iteration:    49charge 0 multiplicity 1
 C        -0.120023         0.235993        -0.177566
 C         1.392090         0.090720        -0.237615
 O         2.149430        -1.068879         0.094433
 C         2.503549        -0.232200        -1.153381
 C         3.385220         0.837253        -0.525991
 C         3.623784         2.085826        -1.442976
 C         2.469600         2.973620        -1.099393
 O         2.068967         2.538181         0.258917
 C         2.260738         1.123911         0.502301
 H        -0.423770        -0.174861         0.803780
 H        -0.399337         1.324345        -0.134767
 H        -0.644940        -0.369206        -0.951452
 H         2.648254        -0.845391        -2.098058
 H         4.372048         0.388031        -0.086314
 H         4.614465         2.551191        -1.175769
 H         3.635105         1.861080        -2.532290
 H         2.741774         4.054237        -0.973783
 H         1.636879         2.849926        -1.823365
 H         2.381560         0.914916         1.566067
