19
Iteration:  1892charge 0 multiplicity 1
 C        -0.076213         0.210079        -0.087023
 C         1.432646         0.123990        -0.144025
 O         2.148957        -1.075471        -0.002571
 C         2.513694        -0.181339        -1.206828
 C         3.519991         0.792623        -0.543103
 C         3.712582         2.201513        -1.181950
 C         2.363115         2.869133        -1.130039
 O         1.809621         2.492653         0.114162
 C         2.339628         1.182448         0.445532
 H        -0.421426        -0.143971         0.903722
 H        -0.381242         1.269449        -0.249919
 H        -0.515582        -0.407405        -0.950185
 H         2.604969        -0.967862        -1.965284
 H         4.430250         0.369240        -0.173408
 H         4.499661         2.754407        -0.620899
 H         4.261946         1.944984        -2.178681
 H         2.504218         3.939814        -1.276400
 H         1.718718         2.454690        -2.027586
 H         2.523308         1.175363         1.548072
