19
Iteration:  4122charge 0 multiplicity 1
 C        -0.068809        -0.035142        -0.468395
 C         1.367440         0.133501        -0.189855
 O         2.208792        -1.108665         0.133271
 C         2.445612        -0.360273        -1.032351
 C         3.388381         0.843744        -0.696143
 C         3.487256         2.086263        -1.542319
 C         2.437847         3.043700        -0.930744
 O         2.097615         2.706438         0.445511
 C         2.344726         1.297944         0.550379
 H        -0.762053         0.003488         0.499781
 H        -0.459968         0.669993        -1.128166
 H        -0.181743        -1.010682        -1.101304
 H         2.512012        -0.904954        -2.062948
 H         4.381081         0.512091        -0.379345
 H         4.413163         2.525602        -1.034847
 H         3.574522         2.078190        -2.679695
 H         2.864976         4.065755        -0.975235
 H         1.500443         2.896658        -1.606198
 H         2.663213         0.934652         1.566641
