19
Iteration:  4473
 C        -0.090195         0.111734        -0.350245
 C         1.368007         0.148589        -0.236236
 O         2.178560        -1.076409         0.059871
 C         2.539325        -0.323937        -1.080114
 C         3.468600         0.755695        -0.637024
 C         3.593824         2.175056        -1.363551
 C         2.242844         2.942184        -0.981695
 O         2.106895         2.632377         0.386481
 C         2.378917         1.219280         0.475357
 H        -0.551880        -0.146515         0.621633
 H        -0.490500         1.086297        -0.774162
 H        -0.392686        -0.770283        -0.978157
 H         2.310417        -0.816639        -2.082968
 H         4.463415         0.246258        -0.404712
 H         4.433928         2.709683        -0.929344
 H         3.638023         2.244845        -2.461370
 H         2.097412         4.041037        -1.149939
 H         1.506305         2.573359        -1.813508
 H         2.645650         1.041543         1.553683
