19
Iteration:  1845
 C        -0.177647         0.049213        -0.193548
 C         1.374962         0.077135        -0.085849
 O         2.186437        -1.171420        -0.071626
 C         2.502524        -0.102122        -1.098002
 C         3.422702         0.813737        -0.432310
 C         3.743193         2.100828        -1.293707
 C         2.359727         2.911046        -1.162423
 O         1.994093         2.632351         0.174389
 C         2.356004         1.268217         0.527969
 H        -0.666400         0.050574         0.841959
 H        -0.535311         0.956324        -0.756973
 H        -0.388794        -0.928916        -0.913683
 H         2.539205        -0.263995        -2.268552
 H         4.381497         0.406578         0.038757
 H         4.618013         2.653934        -1.033597
 H         3.881792         1.988449        -2.418202
 H         2.423185         4.016739        -1.285231
 H         1.592529         2.487121        -1.953417
 H         2.524886         1.285412         1.592891
