19
Iteration:  2946charge 0 multiplicity 1
 C        -0.033623         0.044901        -0.231791
 C         1.442724         0.110284        -0.100997
 O         2.173241        -1.102904         0.103493
 C         2.539618        -0.287729        -1.064508
 C         3.439713         0.822035        -0.526664
 C         3.516308         2.056700        -1.537991
 C         2.595364         3.118168        -0.952755
 O         1.801579         2.557773         0.149549
 C         2.300258         1.236061         0.439427
 H        -0.552312        -0.544347         0.549587
 H        -0.326217         1.152077        -0.214549
 H        -0.382031        -0.314400        -1.185526
 H         2.532980        -0.756796        -2.036578
 H         4.426271         0.547889        -0.127087
 H         4.488717         2.514213        -1.557774
 H         3.219482         1.970568        -2.578717
 H         3.303339         3.738103        -0.457633
 H         1.789345         3.645583        -1.617866
 H         2.527971         1.005666         1.513685
