19
Iteration:  4095charge 0 multiplicity 1
 C        -0.032533         0.154122        -0.337254
 C         1.424913         0.097856        -0.203653
 O         2.127872        -1.081327         0.142945
 C         2.501519        -0.208009        -1.096534
 C         3.523973         0.895201        -0.589556
 C         3.523675         2.122723        -1.414615
 C         2.288795         2.972183        -0.964340
 O         2.065173         2.513729         0.295975
 C         2.349236         1.153263         0.445388
 H        -0.611680         0.323041         0.554667
 H        -0.368006         0.886380        -1.193451
 H        -0.336259        -0.755849        -0.792316
 H         2.589722        -0.690157        -2.002111
 H         4.483428         0.528908        -0.183812
 H         4.437202         2.623210        -1.217571
 H         3.396679         1.859305        -2.441173
 H         2.484686         4.076830        -0.903395
 H         1.513146         2.559706        -1.721089
 H         2.605527         0.868080         1.445151
