19
Iteration:  1249charge 0 multiplicity 1
 C        -0.066600         0.308610        -0.280371
 C         1.449365         0.122577        -0.101907
 O         2.232724        -1.147967        -0.034160
 C         2.516652        -0.168434        -1.051561
 C         3.490874         0.802646        -0.476358
 C         3.661307         2.154328        -1.405161
 C         2.285629         2.768904        -1.187212
 O         1.893083         2.542607         0.253551
 C         2.335702         1.179860         0.610579
 H        -0.530064         0.007711         0.624495
 H        -0.095426         1.356190        -0.317502
 H        -0.412632        -0.267222        -1.126321
 H         2.271059        -0.400582        -2.051507
 H         4.400238         0.374339        -0.088017
 H         4.546252         2.707571        -1.131436
 H         3.678625         1.879089        -2.495425
 H         2.274891         3.899304        -1.316774
 H         1.534947         2.296453        -1.949342
 H         2.481460         1.250630         1.681045
