19
Iteration:  2592
 C        -0.032086        -0.124182        -0.220035
 C         1.424621         0.085522        -0.160408
 O         2.224325        -1.039629         0.163401
 C         2.566807        -0.376666        -1.064415
 C         3.383070         0.868830        -0.574998
 C         3.376843         2.044235        -1.561045
 C         2.982932         3.216645        -0.686678
 O         1.708169         2.579843        -0.038926
 C         2.146474         1.284713         0.411587
 H        -0.547767         0.138869         0.772959
 H        -0.513765         0.602616        -0.962430
 H        -0.211111        -1.116682        -0.691760
 H         2.588235        -1.084105        -1.856312
 H         4.397386         0.656636        -0.192317
 H         4.288559         2.300649        -2.181049
 H         2.651871         2.170912        -2.265308
 H         3.706115         3.470806         0.036390
 H         2.680984         4.160029        -1.239007
 H         2.083351         1.511500         1.485727
