19
Iteration:  1296
 C        -0.139570         0.026707        -0.060681
 C         1.389743         0.227800        -0.222067
 O         2.101114        -1.037108        -0.044522
 C         2.519881        -0.182913        -1.123386
 C         3.545542         0.853124        -0.493102
 C         3.735296         2.120930        -1.285229
 C         2.358340         2.871204        -1.189026
 O         1.983168         2.507645         0.160692
 C         2.277598         1.214723         0.490548
 H        -0.269166         0.079601         1.043351
 H        -0.624775         0.909381        -0.492399
 H        -0.350718        -0.990204        -0.419521
 H         2.544750        -0.535908        -2.169888
 H         4.547391         0.483605        -0.129218
 H         4.449524         2.712574        -0.681029
 H         4.160362         1.903676        -2.211432
 H         2.352778         3.995285        -1.200427
 H         1.574099         2.443713        -1.934787
 H         2.258603         1.336925         1.555205
