19
Iteration:   848
 C        -0.007752         0.178695        -0.192016
 C         1.398682         0.141316        -0.138543
 O         2.067908        -1.125300        -0.047692
 C         2.552165        -0.226226        -1.091101
 C         3.506815         0.811337        -0.477666
 C         3.655222         2.054587        -1.444216
 C         2.409471         2.893976        -1.112125
 O         1.905636         2.600045         0.220007
 C         2.319654         1.240617         0.573890
 H        -0.405726        -0.062483         0.874220
 H        -0.516623         1.103409        -0.475413
 H        -0.250351        -0.813334        -0.681148
 H         2.517269        -0.360320        -2.218274
 H         4.483733         0.507691        -0.079884
 H         4.591757         2.654812        -1.150585
 H         3.662666         1.713102        -2.521516
 H         2.642836         3.957991        -1.078046
 H         1.559977         2.761440        -1.855010
 H         2.358345         1.253659         1.640396
