19
Iteration:    83charge 0 multiplicity 1
 C        -0.022912         0.150222        -0.326792
 C         1.459137         0.177305         0.047699
 O         2.096084        -1.154422        -0.061002
 C         2.315718        -0.142610        -1.072621
 C         3.389469         0.781911        -0.543318
 C         3.635667         2.042373        -1.392155
 C         2.413389         2.906177        -1.088408
 O         2.011535         2.587352         0.239547
 C         2.479845         1.252377         0.575920
 H        -0.715072        -0.100269         0.516684
 H        -0.327244         1.055195        -0.901333
 H         0.022025        -0.697674        -1.039105
 H         1.999945        -0.379706        -2.091167
 H         4.310713         0.239320        -0.113011
 H         4.580419         2.553530        -1.178607
 H         3.585666         1.813635        -2.501420
 H         2.598662         3.985856        -1.133140
 H         1.572442         2.711648        -1.815486
 H         2.841677         1.322907         1.634127
