19
Iteration:  1155
 C        -0.048717         0.038086        -0.296283
 C         1.418954         0.240122        -0.206284
 O         2.158517        -1.055883         0.014823
 C         2.524126        -0.265554        -1.083077
 C         3.436107         0.811797        -0.506920
 C         3.623807         1.986800        -1.456413
 C         2.409417         2.907229        -1.032758
 O         1.959306         2.633574         0.336171
 C         2.298919         1.329087         0.507202
 H        -0.508726        -0.252174         0.685798
 H        -0.566427         0.947435        -0.622034
 H        -0.176492        -0.832815        -0.930304
 H         2.586770        -0.496787        -2.088624
 H         4.329713         0.439446         0.030196
 H         4.564990         2.563147        -1.422882
 H         3.445170         1.685635        -2.453141
 H         2.584525         3.961159        -1.122567
 H         1.637959         2.613725        -1.682442
 H         2.501567         1.009998         1.521400
