19
Iteration:  4668charge 0 multiplicity 1
 C        -0.056038         0.106352        -0.297259
 C         1.457297         0.109690        -0.189294
 O         2.183762        -1.056745         0.135737
 C         2.532074        -0.297347        -1.127675
 C         3.451750         0.816915        -0.633276
 C         3.435878         2.076728        -1.498854
 C         2.533672         3.051032        -0.832725
 O         1.860386         2.540514         0.240706
 C         2.346393         1.208678         0.445101
 H        -0.462776         0.166345         0.769065
 H        -0.279405         1.109015        -0.823324
 H        -0.335801        -0.777538        -0.833156
 H         2.507487        -0.954594        -1.951203
 H         4.424664         0.491034        -0.192207
 H         4.538650         2.439466        -1.568964
 H         2.959366         1.871113        -2.507466
 H         3.175727         3.852152        -0.455393
 H         1.856307         3.460271        -1.673196
 H         2.726538         1.180660         1.455683
