19
Iteration:  2290
 C        -0.034430         0.074715        -0.293361
 C         1.403445         0.160033        -0.167070
 O         2.139173        -1.061028         0.026149
 C         2.576429        -0.213257        -1.103749
 C         3.495050         0.792356        -0.498518
 C         3.566969         2.045353        -1.335863
 C         2.299291         2.904661        -1.067972
 O         2.089491         2.659172         0.288257
 C         2.259673         1.223882         0.481769
 H        -0.634699        -0.255871         0.576709
 H        -0.527221         0.969989        -0.675814
 H        -0.324555        -0.643763        -1.165149
 H         2.540414        -0.570578        -2.086865
 H         4.368208         0.184293        -0.125590
 H         4.405411         2.649034        -1.202951
 H         3.638792         1.927644        -2.382802
 H         2.538110         3.962644        -1.350006
 H         1.435344         2.531756        -1.705217
 H         2.345958         1.271846         1.544189
