19
Iteration:  2948
 C        -0.026390         0.057379        -0.231625
 C         1.440749         0.098533        -0.108898
 O         2.177636        -1.102605         0.108053
 C         2.528923        -0.296266        -1.056497
 C         3.431654         0.820869        -0.536007
 C         3.515201         2.064589        -1.528031
 C         2.586257         3.112861        -0.955920
 O         1.798542         2.567729         0.147468
 C         2.326386         1.231413         0.433336
 H        -0.551989        -0.572061         0.513789
 H        -0.357874         1.190140        -0.219159
 H        -0.396615        -0.388181        -1.189479
 H         2.449661        -0.706905        -2.059698
 H         4.460251         0.577223        -0.076196
 H         4.488646         2.542248        -1.553187
 H         3.254091         1.929901        -2.527903
 H         3.322413         3.736338        -0.425018
 H         1.811186         3.644508        -1.633479
 H         2.497410         0.974152         1.518155
