19
Iteration:  2202charge 0 multiplicity 1
 C        -0.155701         0.263373        -0.134517
 C         1.417486         0.078934        -0.159774
 O         2.218155        -1.129765         0.036100
 C         2.514433        -0.351929        -1.203413
 C         3.501926         0.819651        -0.564810
 C         3.702380         2.220172        -1.259397
 C         2.386472         3.000368        -1.138912
 O         1.822308         2.452791         0.159528
 C         2.390887         1.241155         0.522967
 H        -0.527963         0.138626         0.932656
 H        -0.198043         1.309646        -0.624099
 H        -0.754686        -0.424844        -0.845206
 H         2.431667        -0.925158        -2.147620
 H         4.354197         0.181831        -0.214846
 H         4.494542         2.759805        -0.716775
 H         4.087986         2.153086        -2.259452
 H         2.426887         4.147417        -1.101081
 H         1.643482         2.651914        -1.872798
 H         2.533673         1.017749         1.602176
