19
Iteration:   478
 C        -0.079159         0.142171        -0.150777
 C         1.392208         0.177045        -0.105265
 O         2.015083        -1.152877        -0.033847
 C         2.447310        -0.206865        -1.163583
 C         3.461686         0.832534        -0.580265
 C         3.712872         2.124875        -1.344308
 C         2.389938         2.913178        -1.109195
 O         2.019920         2.552805         0.251152
 C         2.425344         1.237191         0.507641
 H        -0.518168         0.244683         0.855184
 H        -0.511045         0.979875        -0.650445
 H        -0.354985        -0.824744        -0.566834
 H         2.321918        -0.665178        -2.187176
 H         4.359237         0.239180        -0.168513
 H         4.479769         2.645001        -0.744635
 H         4.056481         2.159473        -2.422416
 H         2.404105         3.991619        -1.232967
 H         1.799191         2.594945        -1.960001
 H         2.633483         1.039331         1.580762
