19
Iteration:  4312charge 0 multiplicity 1
 C        -0.112055        -0.024806        -0.135416
 C         1.440393         0.218324        -0.098432
 O         2.166197        -1.038694        -0.126923
 C         2.483019        -0.227183        -1.165886
 C         3.509126         0.785344        -0.571431
 C         3.629129         2.068657        -1.284849
 C         2.433339         2.967755        -1.091186
 O         1.885767         2.625580         0.224353
 C         2.378753         1.182865         0.537725
 H        -0.384850        -0.325908         0.870463
 H        -0.749585         1.012355        -0.327906
 H        -0.444469        -0.739529        -0.913740
 H         2.544564        -0.629678        -2.233926
 H         4.341362         0.261981        -0.059013
 H         4.452976         2.707814        -0.807145
 H         3.819955         2.112868        -2.417989
 H         2.688284         4.068773        -1.184695
 H         1.624406         2.859766        -1.844195
 H         2.370995         1.077259         1.700025
