19
Iteration:  3905
 C        -0.126501         0.018669        -0.223782
 C         1.383855        -0.007100         0.006487
 O         2.204727        -1.128460         0.099459
 C         2.494618        -0.274632        -1.014544
 C         3.467116         0.918624        -0.612037
 C         3.511069         2.145009        -1.622109
 C         2.703613         3.107696        -0.837529
 O         1.811230         2.516297         0.086560
 C         2.311129         1.264327         0.414374
 H        -0.630515         0.206316         0.703970
 H        -0.320425         0.847508        -0.886992
 H        -0.409498        -0.995329        -0.736620
 H         2.503723        -0.745332        -2.058791
 H         4.458839         0.615599        -0.210849
 H         4.533663         2.439862        -1.812111
 H         3.025070         1.905910        -2.553105
 H         3.302924         3.776958        -0.209304
 H         2.083723         3.831627        -1.454786
 H         2.487945         1.279470         1.543544
