19
Iteration:  2718
 C        -0.038252         0.097749        -0.160834
 C         1.498620         0.157183        -0.118329
 O         2.183154        -1.162914         0.078927
 C         2.562523        -0.308734        -1.092951
 C         3.488959         0.837184        -0.488732
 C         3.567542         2.028988        -1.480987
 C         2.575378         3.155587        -0.863765
 O         1.727526         2.482847        -0.014469
 C         2.207427         1.304002         0.398688
 H        -0.353153        -0.548374         0.620614
 H        -0.289145         1.182025         0.069736
 H        -0.569199        -0.249533        -1.013984
 H         2.518480        -0.634939        -2.142384
 H         4.466238         0.596154         0.047888
 H         4.618583         2.361212        -1.471668
 H         3.365504         1.568137        -2.507622
 H         3.117496         3.802799        -0.235997
 H         1.989981         3.686449        -1.577329
 H         2.444046         1.292462         1.485428
