19
Iteration:   353
 C        -0.135843         0.201212        -0.164327
 C         1.365867         0.233621        -0.286034
 O         2.097846        -1.049409         0.035189
 C         2.532338        -0.290095        -1.099453
 C         3.479779         0.808436        -0.549978
 C         3.610998         2.129690        -1.397458
 C         2.320960         2.869854        -1.104331
 O         2.097570         2.520549         0.353001
 C         2.369242         1.160366         0.413059
 H        -0.370570        -0.023839         0.872900
 H        -0.428404         1.269008        -0.328080
 H        -0.625928        -0.460082        -0.900075
 H         2.591254        -0.713592        -2.125631
 H         4.368871         0.569100        -0.028874
 H         4.414598         2.620094        -0.822877
 H         3.808894         1.960045        -2.433364
 H         2.662254         3.886566        -1.286287
 H         1.497673         2.488507        -1.682949
 H         2.669986         0.953588         1.418535
