19
Iteration:  2557
 C        -0.106195        -0.080811        -0.273550
 C         1.414251         0.080153        -0.080661
 O         2.219576        -1.032172         0.169945
 C         2.535316        -0.401300        -1.045874
 C         3.436562         0.866665        -0.574911
 C         3.450576         2.081542        -1.609145
 C         2.834044         3.209342        -0.752089
 O         1.768698         2.537491         0.017608
 C         2.214676         1.328952         0.416591
 H        -0.756322        -0.483319         0.567979
 H        -0.427298         0.967765        -0.650480
 H        -0.309668        -0.823277        -1.043590
 H         2.447253        -1.122133        -1.830881
 H         4.448267         0.550799        -0.221684
 H         4.510780         2.487886        -1.798911
 H         2.840763         1.875794        -2.436499
 H         3.410022         3.676004         0.015414
 H         2.465811         3.923556        -1.472556
 H         2.436170         1.293873         1.535252
