19
Iteration:  1212
 C         0.061691         0.233089        -0.394483
 C         1.462307         0.181610        -0.120174
 O         2.100269        -1.135921         0.108102
 C         2.480034        -0.350523        -1.012405
 C         3.538265         0.791052        -0.595676
 C         3.578103         2.164445        -1.405651
 C         2.272194         2.879734        -1.082734
 O         1.913443         2.611419         0.276700
 C         2.431252         1.167934         0.548867
 H        -0.474010        -0.362665         0.354150
 H        -0.517546         1.170455        -0.358106
 H        -0.323083        -0.101753        -1.335576
 H         2.351996        -0.520802        -2.125956
 H         4.505228         0.316776        -0.355712
 H         4.419175         2.873215        -1.118166
 H         3.716994         2.047322        -2.518737
 H         2.327149         3.922099        -1.230375
 H         1.491004         2.540869        -1.756072
 H         2.633430         1.139781         1.677042
