19
Iteration:  2167
 C        -0.075613         0.069787        -0.132680
 C         1.481901         0.139589        -0.124794
 O         2.134409        -1.137129        -0.127990
 C         2.527925        -0.157284        -1.119435
 C         3.520536         0.753935        -0.472444
 C         3.737197         2.079773        -1.339746
 C         2.415597         2.895560        -1.128498
 O         1.797097         2.596027         0.173243
 C         2.336380         1.348399         0.600125
 H        -0.615049        -0.248729         0.830466
 H        -0.539408         1.167488        -0.144638
 H        -0.465772        -0.496520        -0.959013
 H         2.374443        -0.574038        -2.146654
 H         4.447386         0.321327        -0.129773
 H         4.537016         2.687873        -1.096825
 H         3.738298         1.788527        -2.425303
 H         2.511473         4.033623        -1.190294
 H         1.663432         2.614119        -1.934152
 H         2.352587         1.251344         1.709972
