19
Iteration:  2346charge 0 multiplicity 1
 C         0.000372         0.295787        -0.318773
 C         1.459844         0.119850        -0.166015
 O         2.187915        -1.157160         0.058040
 C         2.522788        -0.268682        -1.039405
 C         3.441003         0.859924        -0.510014
 C         3.626922         2.069541        -1.384285
 C         2.312898         2.935456        -1.116418
 O         1.854063         2.518300         0.230374
 C         2.379859         1.171091         0.538651
 H        -0.461197        -0.204439         0.557654
 H        -0.144635         1.365598        -0.262854
 H        -0.519686        -0.184790        -1.268414
 H         2.459710        -0.705483        -2.050495
 H         4.446945         0.499935        -0.205648
 H         4.286476         2.750664        -0.948888
 H         3.809386         1.856859        -2.425651
 H         2.664423         3.969727        -1.122937
 H         1.454569         2.828502        -1.860738
 H         2.640893         1.286140         1.564028
