19
Iteration:  3897
 C        -0.076648         0.044925        -0.221129
 C         1.384084         0.014046        -0.089239
 O         2.239566        -1.130806         0.128012
 C         2.494938        -0.278917        -0.995729
 C         3.422948         0.921219        -0.600130
 C         3.479853         2.090427        -1.595332
 C         2.719518         3.169180        -0.762335
 O         1.793080         2.462334         0.034829
 C         2.316783         1.262327         0.440392
 H        -0.620021         0.275960         0.669692
 H        -0.172760         0.903792        -1.001397
 H        -0.622141        -0.919062        -0.657332
 H         2.326008        -0.729514        -2.039147
 H         4.468408         0.744565        -0.281946
 H         4.435761         2.333607        -1.972337
 H         2.849164         1.977324        -2.475960
 H         3.430734         3.828141        -0.293999
 H         2.071446         3.763572        -1.507018
 H         2.644725         1.274893         1.470191
