19
Iteration:  3375
 C        -0.002247         0.383369        -0.183889
 C         1.488715         0.109185         0.021936
 O         2.137712        -1.100003        -0.161533
 C         2.512753        -0.108837        -1.085553
 C         3.532567         0.867024        -0.459461
 C         3.643357         2.098734        -1.347550
 C         2.254237         2.675255        -1.174408
 O         1.846399         2.477979         0.189685
 C         2.435601         1.196730         0.543139
 H        -0.659114         0.206356         0.681460
 H        -0.331504         1.336288        -0.485193
 H        -0.264301        -0.575866        -0.763184
 H         2.559937        -0.389241        -2.144384
 H         4.419669         0.394809         0.030899
 H         4.402449         2.855951        -0.810070
 H         3.944791         2.028305        -2.443041
 H         2.043926         3.721033        -1.459407
 H         1.567626         2.075432        -1.831060
 H         2.426552         1.083733         1.631633
