19
Iteration:  1059charge 0 multiplicity 1
 C        -0.168746         0.142801        -0.046170
 C         1.407897         0.187107        -0.140576
 O         2.071600        -1.181871        -0.179884
 C         2.661938        -0.227068        -1.100972
 C         3.532982         0.836864        -0.378882
 C         3.684877         2.159053        -1.317966
 C         2.339548         2.860164        -1.207434
 O         1.951285         2.574510         0.182357
 C         2.326387         1.254710         0.517634
 H        -0.619678        -0.131658         0.906361
 H        -0.532820         1.121911        -0.363156
 H        -0.575115        -0.618145        -0.638019
 H         2.656259        -0.566452        -2.065373
 H         4.530451         0.524292        -0.109104
 H         4.512248         2.866429        -0.912657
 H         3.847612         1.832153        -2.360060
 H         2.496305         3.881754        -1.338880
 H         1.675609         2.365953        -2.063227
 H         2.458159         1.321098         1.623329
