19
Iteration:  1399
 C        -0.095256         0.158848        -0.186265
 C         1.391079         0.118373        -0.238283
 O         2.211937        -1.120582         0.012531
 C         2.635645        -0.345302        -1.085828
 C         3.431041         0.880277        -0.452213
 C         3.620582         2.002190        -1.334085
 C         2.376825         3.009709        -1.099095
 O         1.956059         2.644538         0.214255
 C         2.255254         1.214653         0.461127
 H        -0.366557        -0.186977         0.853180
 H        -0.296092         1.271152        -0.235246
 H        -0.592036        -0.389475        -1.058334
 H         2.640829        -0.737819        -2.049394
 H         4.285654         0.407739        -0.042270
 H         4.576904         2.469423        -1.468934
 H         3.434167         1.644601        -2.336264
 H         2.485482         4.104514        -1.127356
 H         1.563508         2.783136        -1.904142
 H         2.436088         1.230502         1.588855
