19
Iteration:  3490charge 0 multiplicity 1
 C        -0.092787        -0.096356        -0.278446
 C         1.352455         0.137350        -0.095060
 O         2.187885        -1.111348         0.079911
 C         2.486149        -0.222087        -0.941559
 C         3.423823         0.865516        -0.556964
 C         3.501582         2.068626        -1.571242
 C         2.625982         3.151890        -0.984978
 O         1.965597         2.568056         0.196761
 C         2.310774         1.262058         0.482305
 H        -0.711732        -0.293625         0.572925
 H        -0.670828         0.714886        -0.821038
 H        -0.126876        -1.024476        -0.873422
 H         2.302618        -0.640794        -1.993635
 H         4.447747         0.499872        -0.410306
 H         4.587429         2.478964        -1.629547
 H         3.337331         1.652627        -2.600543
 H         3.220592         4.020606        -0.679026
 H         1.835944         3.555657        -1.609811
 H         2.261817         1.172311         1.607278
