19
Iteration:  3790charge 0 multiplicity 1
 C        -0.078134        -0.242857        -0.272054
 C         1.353826         0.097810        -0.071442
 O         2.149064        -0.997907         0.094317
 C         2.490739        -0.256597        -0.959086
 C         3.391758         0.882538        -0.608934
 C         3.497384         2.048424        -1.578991
 C         2.728027         3.175334        -0.891236
 O         1.976109         2.569784         0.121226
 C         2.253925         1.284149         0.484691
 H        -0.546570        -0.598975         0.632002
 H        -0.784079         0.619488        -0.488689
 H        -0.304038        -0.881336        -1.072685
 H         2.328771        -0.539224        -2.064294
 H         4.413166         0.761358        -0.243623
 H         4.500649         2.259224        -2.029007
 H         2.786802         1.789666        -2.491144
 H         3.551622         3.804203        -0.376784
 H         2.209322         3.941113        -1.501700
 H         2.425660         1.275785         1.586524
