19
Iteration:  3797charge 0 multiplicity 1
 C        -0.058007        -0.235274        -0.277721
 C         1.354772         0.154051        -0.086274
 O         2.154762        -1.020553         0.152721
 C         2.440815        -0.260415        -1.021770
 C         3.394026         0.897687        -0.634106
 C         3.423567         2.056896        -1.640320
 C         2.771044         3.147252        -0.860388
 O         1.954824         2.599142         0.135830
 C         2.260023         1.286346         0.526144
 H        -0.527398        -0.721727         0.577849
 H        -0.622057         0.672107        -0.526169
 H        -0.046692        -1.005106        -1.201363
 H         2.579817        -0.686911        -2.035492
 H         4.330669         0.593421        -0.135036
 H         4.447402         2.316615        -1.827279
 H         3.021058         1.773261        -2.604324
 H         3.589097         3.607266        -0.332615
 H         2.205743         3.876563        -1.538135
 H         2.462200         1.211262         1.574698
