19
Iteration:  2153charge 0 multiplicity 1
 C        -0.124043         0.041194        -0.159259
 C         1.376419         0.175927        -0.076526
 O         2.187270        -1.098051        -0.141850
 C         2.497487        -0.151576        -1.112532
 C         3.453561         0.923879        -0.406497
 C         3.682942         2.026763        -1.327382
 C         2.394365         2.848270        -1.193621
 O         1.927603         2.651889         0.202601
 C         2.336905         1.188311         0.561650
 H        -0.279949        -0.583076         0.698288
 H        -0.646639         0.951314        -0.251590
 H        -0.333571        -0.585635        -1.013027
 H         2.423107        -0.234636        -2.184689
 H         4.299751         0.451655         0.045744
 H         4.639834         2.526711        -1.098246
 H         3.933993         1.645570        -2.354404
 H         2.658502         3.887754        -1.251930
 H         1.606415         2.597610        -1.972921
 H         2.680365         1.298156         1.611202
