19
Iteration:  3662charge 0 multiplicity 1
 C        -0.138446        -0.151465        -0.069048
 C         1.283248         0.163942        -0.220358
 O         2.281789        -1.115653         0.094636
 C         2.463089        -0.258511        -1.053345
 C         3.398054         0.938270        -0.573006
 C         3.569453         2.069271        -1.526727
 C         2.856926         3.212092        -0.770659
 O         1.785743         2.559510        -0.013959
 C         2.248384         1.259401         0.354138
 H        -0.446513        -0.428180         1.073294
 H        -0.978076         0.567903        -0.412713
 H        -0.416203        -1.064866        -0.535182
 H         2.513600        -0.850576        -2.035659
 H         4.200754         0.345089        -0.011427
 H         4.641568         2.348758        -1.852646
 H         3.014059         1.764716        -2.347646
 H         3.577493         3.791359        -0.155403
 H         2.363198         3.809789        -1.528607
 H         2.511793         1.269553         1.443989
