19
Iteration:  1218
 C         0.023630         0.234037        -0.392298
 C         1.479630         0.184598        -0.077001
 O         2.114538        -1.098456         0.095887
 C         2.502314        -0.292900        -1.038820
 C         3.519149         0.745700        -0.587695
 C         3.572026         2.152311        -1.397224
 C         2.240167         2.869037        -1.104608
 O         1.930541         2.528438         0.257666
 C         2.445538         1.203116         0.554006
 H        -0.537028        -0.371768         0.363726
 H        -0.302163         1.305550        -0.387830
 H        -0.203446        -0.089605        -1.472592
 H         2.209381        -0.505958        -2.031325
 H         4.481045         0.352199        -0.202908
 H         4.399013         2.681028        -0.958235
 H         3.688892         2.093358        -2.459198
 H         2.324242         4.019718        -1.086969
 H         1.403339         2.570487        -1.837505
 H         2.662403         1.352479         1.579521
