19
Iteration:  3437charge 0 multiplicity 1
 C        -0.192540         0.007965        -0.160366
 C         1.376499         0.133662        -0.244925
 O         2.190106        -1.062396         0.073261
 C         2.529887        -0.263673        -1.120256
 C         3.444532         0.781704        -0.555166
 C         3.663943         2.160924        -1.416858
 C         2.439176         2.972170        -1.057311
 O         1.993477         2.605082         0.227219
 C         2.349624         1.268214         0.478107
 H        -0.187346        -0.396876         0.848526
 H        -0.791944         0.963524        -0.182660
 H        -0.757500        -0.621037        -0.962581
 H         2.521774        -0.985014        -1.990294
 H         4.353652         0.475407        -0.101089
 H         4.505148         2.580191        -1.047838
 H         3.911573         1.981536        -2.461663
 H         2.575807         4.047234        -1.088063
 H         1.612342         2.888455        -1.833564
 H         2.225276         1.101334         1.563180
