19
Iteration:  1579charge 0 multiplicity 1
 C        -0.083220        -0.103267        -0.099311
 C         1.389840         0.119625        -0.160947
 O         2.144939        -1.064975         0.072067
 C         2.437884        -0.255580        -1.102401
 C         3.427752         0.834149        -0.564017
 C         3.756688         2.125036        -1.370789
 C         2.649354         3.036821        -1.011271
 O         1.821620         2.596927         0.022644
 C         2.228546         1.309404         0.438125
 H        -0.352165        -0.568178         0.806815
 H        -0.756766         0.722890         0.026794
 H        -0.461021        -0.825806        -0.755899
 H         2.393431        -0.860618        -2.075162
 H         4.358433         0.455759        -0.075737
 H         4.651548         2.618614        -0.929240
 H         3.870130         1.953217        -2.488773
 H         3.075605         4.040366        -0.682859
 H         1.932522         3.331552        -1.795205
 H         2.369701         1.275131         1.522814
