19
Iteration:  1996
 C        -0.049257         0.130694        -0.407068
 C         1.423090         0.123037        -0.244522
 O         2.194781        -1.124998         0.155122
 C         2.524314        -0.278435        -1.018900
 C         3.397341         0.810868        -0.599380
 C         3.562040         2.115253        -1.389001
 C         2.249428         2.937545        -1.062887
 O         2.117080         2.640746         0.348848
 C         2.277118         1.259308         0.433290
 H        -0.444144         0.027503         0.602034
 H        -0.316927         1.025624        -0.884004
 H        -0.326411        -0.793387        -0.948487
 H         2.621398        -1.016152        -1.901598
 H         4.353013         0.399475        -0.098023
 H         4.455698         2.675848        -0.789302
 H         3.868822         1.878638        -2.421611
 H         2.606634         3.982094        -1.220392
 H         1.324594         2.719691        -1.775203
 H         2.495408         1.118499         1.473029
