19
Iteration:  3607charge 0 multiplicity 1
 C        -0.116157        -0.166089        -0.249801
 C         1.365548         0.018873        -0.090847
 O         2.244802        -1.082781         0.185490
 C         2.502609        -0.303111        -1.015284
 C         3.426337         0.906822        -0.606862
 C         3.425943         2.115115        -1.634723
 C         2.855970         3.234537        -0.775637
 O         1.856384         2.595592         0.007234
 C         2.202604         1.248850         0.458140
 H        -0.651891        -0.453114         0.733839
 H        -0.495470         0.905877        -0.401781
 H        -0.358120        -0.844670        -1.022110
 H         2.171212        -0.722763        -1.992951
 H         4.380758         0.384494        -0.304838
 H         4.419170         2.329415        -2.135453
 H         2.815618         1.837970        -2.421480
 H         3.734499         3.585276        -0.145333
 H         2.429436         4.090930        -1.299792
 H         2.215026         1.466701         1.516738
