19
Iteration:  1147
 C        -0.033927        -0.002022        -0.306286
 C         1.422226         0.163133        -0.107367
 O         2.090415        -1.053965        -0.006525
 C         2.527357        -0.237626        -1.054736
 C         3.430708         0.813382        -0.505729
 C         3.648929         2.052702        -1.463767
 C         2.426265         2.925687        -1.005803
 O         1.939079         2.691523         0.278587
 C         2.342259         1.253107         0.494225
 H        -0.330174        -0.137252         0.716594
 H        -0.321854         0.896380        -0.846323
 H        -0.242829        -0.815173        -0.935204
 H         2.380815        -0.632215        -2.092192
 H         4.356162         0.355526        -0.146957
 H         4.706189         2.488315        -1.289819
 H         3.511752         1.770517        -2.552373
 H         2.541879         3.981189        -1.102611
 H         1.424224         2.653310        -1.678253
 H         2.568995         1.071685         1.605115
