19
Iteration:  2456charge 0 multiplicity 1
 C        -0.130289         0.067625        -0.220232
 C         1.406271         0.127479        -0.144194
 O         2.174837        -1.162264         0.053342
 C         2.496949        -0.193858        -1.079510
 C         3.471619         0.831248        -0.523681
 C         3.704192         2.095034        -1.311443
 C         2.474339         3.034066        -1.101602
 O         1.827384         2.490408         0.158351
 C         2.373892         1.275505         0.468641
 H        -0.385990         0.099247         0.875109
 H        -0.434836         1.066971        -0.620951
 H        -0.671495        -0.780641        -0.830084
 H         2.261805        -0.668388        -2.131064
 H         4.400430         0.403829        -0.107307
 H         4.618641         2.691499        -1.190769
 H         3.819693         2.041974        -2.452333
 H         2.832670         4.061772        -0.979821
 H         1.649117         3.044324        -1.896907
 H         2.542941         1.380862         1.524212
