19
Iteration:  1369charge 0 multiplicity 1
 C        -0.120337         0.037923        -0.144928
 C         1.421307         0.137300        -0.214286
 O         2.084046        -1.066525         0.056029
 C         2.546902        -0.248474        -1.063798
 C         3.489478         0.902475        -0.560600
 C         3.780124         2.059979        -1.406134
 C         2.455882         2.995419        -1.086465
 O         1.821325         2.558557         0.160033
 C         2.297355         1.235363         0.502838
 H        -0.220739        -0.298376         0.852407
 H        -0.467622         1.020689        -0.184605
 H        -0.349609        -0.788320        -0.807444
 H         2.546274        -0.765325        -1.983615
 H         4.290671         0.280405        -0.239816
 H         4.674070         2.677117        -1.212054
 H         3.832521         1.713383        -2.568505
 H         2.732409         4.046414        -0.788479
 H         1.757044         3.186603        -1.819520
 H         2.496621         1.062934         1.603441
