19
Iteration:  4543
 C         0.039142         0.251980        -0.105113
 C         1.464081         0.113944        -0.090361
 O         2.125574        -1.147603        -0.160338
 C         2.508550        -0.115077        -1.159732
 C         3.478611         0.814790        -0.476941
 C         3.684326         2.138048        -1.294897
 C         2.291739         2.850017        -1.159847
 O         1.842943         2.482157         0.163532
 C         2.385923         1.188069         0.582364
 H        -0.325576        -0.086868         0.870374
 H        -0.171291         1.332586        -0.088188
 H        -0.490040        -0.259071        -0.914195
 H         2.410318        -0.238560        -2.219233
 H         4.332059         0.334438        -0.050735
 H         4.498554         2.793269        -0.775027
 H         3.923592         1.850828        -2.357461
 H         2.243101         3.975658        -1.228258
 H         1.520302         2.431143        -1.925558
 H         2.566853         1.050618         1.715433
