19
Iteration:  1792
 C        -0.113493         0.070727        -0.345349
 C         1.377077         0.175207        -0.262364
 O         2.146820        -1.060675         0.149571
 C         2.526318        -0.343027        -1.046123
 C         3.526813         0.864821        -0.521954
 C         3.591263         2.086151        -1.436133
 C         2.364257         2.981086        -1.026377
 O         1.982399         2.575439         0.289855
 C         2.350447         1.219051         0.462615
 H        -0.462022        -0.029556         0.646558
 H        -0.452496         1.056203        -0.552460
 H        -0.434004        -0.669156        -1.118614
 H         2.528981        -1.061145        -1.958530
 H         4.582807         0.797198        -0.204584
 H         4.458361         2.686745        -1.152902
 H         3.758901         1.992707        -2.612103
 H         2.767049         3.973312        -1.023894
 H         1.560098         2.836675        -1.834560
 H         2.386272         0.977800         1.528132
