19
Iteration:  4026charge 0 multiplicity 1
 C        -0.141797         0.251918        -0.099528
 C         1.444173         0.201911        -0.039716
 O         2.194354        -1.106928        -0.135645
 C         2.492881        -0.137437        -1.136204
 C         3.551008         0.821609        -0.506250
 C         3.743458         2.176398        -1.297098
 C         2.226029         2.744335        -1.166296
 O         1.876422         2.493787         0.215304
 C         2.437464         1.168459         0.511389
 H        -0.688963        -0.063536         0.710167
 H        -0.357827         1.285248        -0.299349
 H        -0.369877        -0.310584        -1.063565
 H         2.290789        -0.552934        -2.201548
 H         4.527931         0.430409        -0.205278
 H         4.382116         2.928362        -0.867201
 H         3.986761         1.898119        -2.325586
 H         2.079176         3.737525        -1.480792
 H         1.718697         1.996996        -1.753825
 H         2.497371         1.177867         1.648059
