19
Iteration:  4814charge 0 multiplicity 1
 C        -0.131983        -0.184941        -0.123661
 C         1.431909         0.104053        -0.166848
 O         2.230020        -1.079727         0.132837
 C         2.466798        -0.181086        -1.108277
 C         3.397175         0.909222        -0.689103
 C         3.552432         2.103781        -1.537562
 C         2.932550         3.102634        -0.667485
 O         1.715648         2.572351        -0.021191
 C         2.183436         1.260228         0.440290
 H        -0.528526        -0.165016         0.834032
 H        -0.719544         0.655199        -0.691244
 H        -0.339244        -1.186940        -0.582058
 H         2.206346        -0.752301        -2.059201
 H         4.372099         0.515399        -0.301669
 H         4.550338         2.241594        -1.871159
 H         2.980027         2.121739        -2.498665
 H         3.501900         3.557619         0.097312
 H         2.605541         4.023006        -1.295305
 H         2.480566         1.188428         1.438616
