19
Iteration:  4374
 C        -0.062358         0.184243        -0.254879
 C         1.440085         0.244704        -0.220215
 O         2.206744        -1.121054         0.048658
 C         2.526884        -0.292602        -1.102452
 C         3.475686         0.790401        -0.584142
 C         3.541699         2.088973        -1.443497
 C         2.439908         3.047522        -0.858210
 O         1.803081         2.445521         0.215826
 C         2.392946         1.180231         0.435056
 H        -0.337635        -0.121964         0.768782
 H        -0.482125         1.115516        -0.447957
 H        -0.485216        -0.638405        -0.935105
 H         2.494140        -0.740070        -2.103530
 H         4.404251         0.789652         0.029303
 H         4.480698         2.585793        -1.297716
 H         3.538441         1.783687        -2.531445
 H         3.004240         3.979345        -0.627966
 H         1.620817         3.429246        -1.598808
 H         2.776586         1.141072         1.482616
