19
Iteration:  2719
 C        -0.039583         0.092708        -0.162129
 C         1.503180         0.163139        -0.121076
 O         2.182693        -1.167411         0.085606
 C         2.558305        -0.301455        -1.094591
 C         3.478129         0.843132        -0.486536
 C         3.568183         2.024948        -1.478092
 C         2.575054         3.154009        -0.868555
 O         1.723027         2.489578        -0.013302
 C         2.213667         1.284866         0.392917
 H        -0.362389        -0.536774         0.616493
 H        -0.283062         1.174816         0.076846
 H        -0.550122        -0.238406        -1.010323
 H         2.531792        -0.629791        -2.110704
 H         4.467995         0.579144         0.043705
 H         4.649534         2.420840        -1.460090
 H         3.345058         1.577742        -2.551443
 H         3.141392         3.814450        -0.217743
 H         2.030215         3.685081        -1.577356
 H         2.479838         1.300278         1.473661
