19
Iteration:  4110charge 0 multiplicity 1
 C        -0.077951         0.029112        -0.467907
 C         1.418073         0.143753        -0.137554
 O         2.199831        -1.042837         0.128184
 C         2.494830        -0.346205        -1.075793
 C         3.397924         0.763609        -0.610211
 C         3.519702         2.163728        -1.455739
 C         2.346763         3.044148        -1.007777
 O         2.106849         2.598021         0.399522
 C         2.366985         1.213747         0.475902
 H        -0.737375         0.164798         0.533739
 H        -0.300316         0.848379        -1.091913
 H        -0.389780        -0.984948        -0.854797
 H         2.297335        -0.938430        -2.059654
 H         4.384404         0.417255        -0.270748
 H         4.543228         2.660301        -1.275997
 H         3.557590         1.950578        -2.560616
 H         2.572454         4.162414        -0.936866
 H         1.290230         3.067782        -1.492697
 H         2.522418         1.073021         1.557347
