19
Iteration:  1367
 C        -0.122635         0.024583        -0.146868
 C         1.433394         0.125223        -0.197316
 O         2.081388        -1.068546         0.048191
 C         2.532190        -0.252807        -1.055091
 C         3.477334         0.894927        -0.570251
 C         3.795373         2.079590        -1.405898
 C         2.475397         3.016371        -1.082942
 O         1.812305         2.552492         0.157493
 C         2.320307         1.263486         0.499680
 H        -0.309134        -0.338405         0.884682
 H        -0.513561         1.051563        -0.254347
 H        -0.366415        -0.826700        -0.821511
 H         2.457872        -0.741569        -1.957899
 H         4.293113         0.291494        -0.270547
 H         4.703992         2.644324        -1.180672
 H         3.785333         1.673233        -2.495145
 H         2.697263         4.041557        -0.792237
 H         1.736137         3.076015        -1.876643
 H         2.508048         1.018338         1.605869
