19
Iteration:  1362charge 0 multiplicity 1
 C        -0.108784        -0.003001        -0.145692
 C         1.426004         0.119795        -0.139827
 O         2.092378        -1.085822         0.038079
 C         2.494387        -0.249312        -1.051650
 C         3.448957         0.857059        -0.571380
 C         3.794778         2.130013        -1.405230
 C         2.517367         3.051093        -1.076149
 O         1.805554         2.536971         0.149134
 C         2.363597         1.304838         0.483442
 H        -0.495429        -0.360163         0.858505
 H        -0.627094         0.962472        -0.435706
 H        -0.453345        -0.780009        -0.847645
 H         2.305957        -0.744670        -2.076242
 H         4.429477         0.371688        -0.210842
 H         4.777515         2.534715        -1.108366
 H         3.714920         1.710461        -2.366971
 H         2.699887         4.120993        -0.858304
 H         1.759722         2.828523        -1.954074
 H         2.516489         1.062084         1.512364
