19
Iteration:  4673charge 0 multiplicity 1
 C        -0.099297         0.135485        -0.296521
 C         1.501528         0.115700        -0.159843
 O         2.168811        -1.044928         0.167134
 C         2.568488        -0.290592        -1.122622
 C         3.499504         0.786967        -0.621035
 C         3.397593         2.109721        -1.515915
 C         2.530473         3.078368        -0.805841
 O         1.828781         2.530628         0.233371
 C         2.360376         1.158164         0.391108
 H        -0.475635         0.152091         0.682549
 H        -0.155937         1.130611        -0.831513
 H        -0.409716        -0.767487        -0.895012
 H         2.433906        -1.047734        -1.961762
 H         4.507784         0.460551        -0.343696
 H         4.382666         2.357589        -1.665825
 H         3.162418         1.780056        -2.507836
 H         3.173349         3.955643        -0.548088
 H         1.904488         3.590131        -1.587998
 H         2.639615         0.936479         1.457639
