19
Iteration:  1886charge 0 multiplicity 1
 C        -0.041961         0.198449        -0.107536
 C         1.425574         0.155189        -0.166611
 O         2.150459        -1.087903         0.041648
 C         2.489160        -0.157903        -1.231330
 C         3.529572         0.786404        -0.546148
 C         3.724552         2.166615        -1.195030
 C         2.326546         2.875857        -1.095868
 O         1.803430         2.498246         0.090940
 C         2.378648         1.199099         0.446093
 H        -0.477341        -0.055702         0.866247
 H        -0.540189         1.167042        -0.219906
 H        -0.393838        -0.430791        -0.869510
 H         2.546989        -0.825296        -2.081940
 H         4.366170         0.173777        -0.093171
 H         4.502196         2.555897        -0.462399
 H         4.206354         2.134536        -2.156431
 H         2.369868         3.980458        -1.315486
 H         1.853345         2.379394        -1.923883
 H         2.548128         1.116897         1.516452
