19
Iteration:  3543
 C        -0.059707         0.211364        -0.238985
 C         1.425703        -0.020941        -0.219328
 O         2.203969        -1.143011         0.188258
 C         2.664158        -0.384694        -1.014106
 C         3.358905         0.947206        -0.555200
 C         3.401870         2.063920        -1.602633
 C         2.653967         3.169938        -0.807467
 O         1.799605         2.469126         0.072801
 C         2.328240         1.237774         0.422834
 H        -0.526559         0.381249         0.708207
 H        -0.338645         1.061372        -0.884642
 H        -0.543851        -0.627426        -0.573675
 H         2.639499        -0.954223        -1.995590
 H         4.369348         0.806549        -0.048578
 H         4.362451         2.590197        -2.035865
 H         2.831111         1.582781        -2.408042
 H         3.481793         3.736040        -0.284660
 H         1.941972         3.815294        -1.298826
 H         2.678413         1.131163         1.453897
