19
Iteration:  1475
 C        -0.082928         0.251762        -0.381106
 C         1.381788         0.143203        -0.151663
 O         2.159128        -1.088667         0.047372
 C         2.616784        -0.299332        -1.077706
 C         3.512197         0.845109        -0.499427
 C         3.562000         2.133183        -1.396882
 C         2.229012         2.779057        -1.106376
 O         2.091848         2.628381         0.274586
 C         2.335458         1.214590         0.558944
 H        -0.498951         0.298677         0.677055
 H        -0.354373         1.167224        -0.965217
 H        -0.557335        -0.618744        -0.960505
 H         2.666143        -0.948482        -1.893725
 H         4.429211         0.526096        -0.015499
 H         4.397985         2.781015        -1.210929
 H         3.605091         1.807831        -2.364096
 H         2.124989         3.853918        -1.162907
 H         1.452811         2.099749        -1.643743
 H         2.310386         1.035956         1.673788
