19
Iteration:  1276charge 0 multiplicity 1
 C        -0.029169         0.174091        -0.089933
 C         1.442688         0.167074        -0.236633
 O         2.069426        -1.112676        -0.115077
 C         2.619715        -0.203416        -1.101452
 C         3.460933         0.813491        -0.412969
 C         3.630598         2.122495        -1.282525
 C         2.289038         2.776750        -1.216951
 O         1.921880         2.658467         0.224971
 C         2.356485         1.180333         0.485602
 H        -0.224820         0.054410         1.053599
 H        -0.464949         1.223046        -0.344883
 H        -0.360348        -0.759610        -0.612346
 H         2.775566        -0.683844        -2.131731
 H         4.412608         0.453035         0.070495
 H         4.449646         2.778670        -0.900386
 H         3.981963         1.916176        -2.282629
 H         2.516666         3.806947        -1.433633
 H         1.514747         2.440818        -1.921269
 H         2.523152         1.115082         1.627646
