19
Iteration:  3138
 C        -0.005659         0.128648        -0.131446
 C         1.463614         0.219035        -0.174697
 O         2.132914        -1.057589        -0.090619
 C         2.576484        -0.250301        -1.131606
 C         3.481485         0.764508        -0.439741
 C         3.670871         2.063367        -1.334030
 C         2.243764         2.796712        -1.164917
 O         1.960409         2.632014         0.242560
 C         2.278544         1.287865         0.519950
 H        -0.380521        -0.422582         0.804373
 H        -0.315193         1.185151        -0.088688
 H        -0.424522        -0.458400        -1.042928
 H         2.459656        -0.470727        -2.202843
 H         4.490424         0.408137        -0.052871
 H         4.532020         2.682819        -1.013860
 H         3.841540         1.937413        -2.384719
 H         2.276899         3.903733        -1.426853
 H         1.341077         2.376456        -1.696699
 H         2.412557         0.998261         1.581914
