19
Iteration:  1338
 C        -0.078100        -0.011883        -0.167476
 C         1.404635         0.068084         0.000649
 O         2.235561        -1.129149        -0.005226
 C         2.348658        -0.179131        -1.052170
 C         3.362049         0.823979        -0.583062
 C         3.723661         2.112225        -1.292433
 C         2.473240         3.032749        -1.167331
 O         1.959917         2.621184         0.071543
 C         2.304905         1.272842         0.501933
 H        -0.646000        -0.200098         0.723523
 H        -0.416301         0.861169        -0.696013
 H        -0.255340        -0.896818        -0.813336
 H         2.120700        -0.574124        -2.045800
 H         4.220954         0.187360        -0.270170
 H         4.382175         2.640254        -0.598388
 H         4.106806         1.867593        -2.336281
 H         2.955741         3.995900        -0.841980
 H         1.695221         3.107825        -1.999403
 H         2.474822         1.159770         1.562758
