19
Iteration:  4854charge 0 multiplicity 1
 C        -0.056354         0.010804        -0.021779
 C         1.393734        -0.017816        -0.056238
 O         2.191193        -1.189250        -0.023813
 C         2.478350        -0.210761        -1.120712
 C         3.398646         0.921541        -0.610591
 C         3.623398         2.145935        -1.421076
 C         2.823279         3.224288        -0.740084
 O         1.666838         2.445547        -0.134008
 C         2.256993         1.244607         0.413755
 H        -0.284973         0.101104         1.084758
 H        -0.574283         0.869925        -0.481900
 H        -0.463086        -0.899519        -0.407610
 H         2.399302        -0.466418        -2.186255
 H         4.389183         0.564664        -0.274414
 H         4.698312         2.387628        -1.620912
 H         3.143469         1.885343        -2.422489
 H         3.474439         3.787887         0.018231
 H         2.391352         3.923419        -1.434744
 H         2.305321         1.356746         1.547125
