19
Iteration:  3987
 C        -0.046938        -0.021877        -0.036528
 C         1.397840         0.099015        -0.130511
 O         2.153401        -1.123678        -0.028117
 C         2.386747        -0.257092        -1.164782
 C         3.464379         0.852313        -0.508816
 C         3.715696         2.168509        -1.305792
 C         2.447441         3.003454        -1.149454
 O         1.969296         2.663640         0.161718
 C         2.292882         1.221668         0.432804
 H        -0.510432        -0.834054         0.683674
 H        -0.660727         0.954338         0.175882
 H        -0.237826        -0.351666        -1.049702
 H         2.345837        -0.628203        -2.121187
 H         4.331226         0.293622        -0.126513
 H         4.660020         2.607302        -0.887203
 H         3.980612         1.910945        -2.372925
 H         2.496851         4.119523        -1.030910
 H         1.638731         2.821682        -1.919337
 H         2.331775         1.124639         1.494705
