19
Iteration:  3945charge 0 multiplicity 1
 C        -0.083847        -0.129153        -0.090506
 C         1.390883         0.134958        -0.141078
 O         2.176969        -1.032695         0.047760
 C         2.465255        -0.206849        -1.162835
 C         3.409740         0.817850        -0.539971
 C         3.643745         2.084536        -1.413557
 C         2.617183         3.115888        -0.976646
 O         1.940496         2.596940         0.140816
 C         2.185694         1.234214         0.393087
 H        -0.308129        -0.747974         0.882433
 H        -0.722698         0.773999        -0.124610
 H        -0.417223        -0.814071        -0.787511
 H         2.442978        -0.801382        -2.018857
 H         4.222878         0.386795         0.047280
 H         4.664705         2.610597        -1.626532
 H         3.395827         1.754721        -2.482819
 H         3.168269         4.110779        -0.772104
 H         2.008770         3.401983        -1.792849
 H         2.353986         1.130565         1.464796
