19
Iteration:   525
 C        -0.114303         0.264013        -0.132428
 C         1.336483         0.099914        -0.084083
 O         2.212792        -1.126534        -0.121533
 C         2.481265        -0.140212        -1.116902
 C         3.404250         0.827227        -0.520312
 C         3.682811         2.076973        -1.366507
 C         2.354774         2.813589        -1.142017
 O         2.050306         2.558101         0.231724
 C         2.323661         1.200769         0.556429
 H        -0.562813         0.095684         0.858027
 H        -0.213334         1.331781        -0.340563
 H        -0.572412        -0.391195        -0.867430
 H         2.439160        -0.522656        -2.161262
 H         4.325678         0.450871        -0.075098
 H         4.540654         2.728604        -1.081366
 H         3.849992         1.713986        -2.348193
 H         2.495972         3.899205        -1.247779
 H         1.596337         2.485625        -1.838293
 H         2.501586         1.037828         1.637725
