19
Iteration:  1030
 C        -0.027728         0.104936        -0.217729
 C         1.442483         0.169236        -0.033798
 O         2.182821        -1.128513        -0.091336
 C         2.403281        -0.157867        -1.108412
 C         3.396779         0.858840        -0.443601
 C         3.682798         2.077299        -1.290956
 C         2.360734         2.805646        -1.196246
 O         1.984967         2.606588         0.220932
 C         2.339935         1.280449         0.532758
 H        -0.495000        -0.598742         0.520786
 H        -0.383780         1.200949        -0.161535
 H        -0.257070        -0.320046        -1.270325
 H         2.015961        -0.428653        -2.148092
 H         4.323303         0.363433        -0.127095
 H         4.492843         2.711132        -1.039409
 H         3.834012         1.665107        -2.321462
 H         2.517806         3.890286        -1.485814
 H         1.706991         2.397233        -1.922366
 H         2.617421         1.255288         1.613037
