19
Iteration:   588
 C        -0.145448         0.196476        -0.283141
 C         1.403080         0.102558        -0.102818
 O         2.212740        -1.121606         0.021400
 C         2.390360        -0.232954        -1.044129
 C         3.487586         0.798722        -0.579580
 C         3.684283         2.075491        -1.435236
 C         2.367138         2.922038        -1.073805
 O         2.016364         2.619335         0.306450
 C         2.388491         1.220542         0.481865
 H        -0.694351        -0.306816         0.509095
 H        -0.392993         1.209912        -0.131044
 H        -0.551047        -0.112860        -1.231366
 H         2.301878        -0.631767        -2.083266
 H         4.277415         0.182572        -0.087764
 H         4.638351         2.587241        -1.231687
 H         3.565799         1.804592        -2.477138
 H         2.370269         4.002417        -1.140724
 H         1.563757         2.614248        -1.846448
 H         2.591702         1.137789         1.554020
