19
Iteration:  2506charge 0 multiplicity 1
 C        -0.109581         0.087966        -0.192167
 C         1.391595         0.127698        -0.116087
 O         2.190425        -1.155365         0.045712
 C         2.633258        -0.212209        -1.008342
 C         3.426948         0.854009        -0.475623
 C         3.606581         1.998902        -1.511595
 C         2.583479         3.166187        -0.965482
 O         1.752435         2.577509         0.062459
 C         2.305569         1.143075         0.477401
 H        -0.533606        -0.495080         0.693219
 H        -0.486226         1.118261        -0.323789
 H        -0.403440        -0.578413        -0.990905
 H         2.713869        -0.722016        -1.918423
 H         4.394957         0.435100        -0.197474
 H         4.670217         2.385551        -1.533247
 H         3.136252         1.757035        -2.515542
 H         3.091037         4.048492        -0.429519
 H         2.112631         3.520426        -1.990397
 H         2.392448         1.231653         1.607991
