19
Iteration:  1937charge 0 multiplicity 1
 C        -0.033777         0.061235        -0.201052
 C         1.425340         0.125437        -0.109323
 O         2.135636        -1.065286        -0.111971
 C         2.558622        -0.236182        -1.105342
 C         3.496436         0.848073        -0.436822
 C         3.624431         2.038559        -1.311444
 C         2.377944         2.875949        -1.173466
 O         1.887711         2.625098         0.223021
 C         2.305189         1.305569         0.572265
 H        -0.531933        -0.357596         0.702076
 H        -0.470989         1.120569        -0.231244
 H        -0.399205        -0.407637        -1.068612
 H         2.519230        -0.441515        -2.137561
 H         4.328570         0.349943        -0.026020
 H         4.625456         2.541480        -1.107493
 H         3.785439         1.759788        -2.446357
 H         2.742936         3.926127        -1.276078
 H         1.698411         2.608701        -2.044192
 H         2.509582         1.167424         1.673391
