19
Iteration:  2605charge 0 multiplicity 1
 C        -0.063033        -0.150788        -0.254417
 C         1.393450         0.069011        -0.202932
 O         2.232162        -1.057048         0.198175
 C         2.545900        -0.355326        -1.009838
 C         3.378494         0.861041        -0.594144
 C         3.403824         2.072452        -1.546522
 C         2.874849         3.185649        -0.625617
 O         1.777852         2.648614        -0.068341
 C         2.219440         1.314753         0.324878
 H        -0.443925         0.139732         0.791737
 H        -0.482041         0.562863        -0.948421
 H        -0.474455        -1.202286        -0.374107
 H         2.516578        -0.756699        -2.063315
 H         4.281847         0.662533        -0.027744
 H         4.352192         2.155114        -2.002936
 H         2.656405         1.716577        -2.238517
 H         3.587388         3.494922         0.131444
 H         2.520030         4.122462        -1.198395
 H         2.520136         1.128355         1.378860
