19
Iteration:  4624charge 0 multiplicity 1
 C        -0.150083        -0.132513        -0.192042
 C         1.393352         0.046822        -0.115452
 O         2.129832        -1.140236        -0.093381
 C         2.479015        -0.202981        -1.108994
 C         3.365791         0.870213        -0.509407
 C         3.617026         2.045084        -1.411519
 C         2.561473         3.112111        -0.971752
 O         1.986456         2.645837         0.219293
 C         2.372135         1.390971         0.502775
 H        -0.400022        -0.260100         0.942122
 H        -0.575239         0.832634        -0.585463
 H        -0.417271        -1.035043        -0.742672
 H         2.518779        -0.547863        -2.150463
 H         4.343531         0.415737        -0.225903
 H         4.734521         2.506006        -1.394597
 H         3.440628         1.570836        -2.416745
 H         2.972083         4.124102        -0.929925
 H         1.637658         3.086621        -1.739059
 H         2.453549         1.111364         1.535748
