19
Iteration:  3979
 C        -0.156846        -0.054463        -0.052183
 C         1.358394         0.108360        -0.151785
 O         2.186825        -1.163683        -0.033986
 C         2.448232        -0.257943        -1.134046
 C         3.431671         0.842760        -0.545080
 C         3.733489         2.157501        -1.312224
 C         2.490889         3.022189        -1.093098
 O         1.968143         2.658896         0.152663
 C         2.274474         1.285152         0.431394
 H        -0.275849        -0.827492         0.784395
 H        -0.651455         0.841673         0.218772
 H        -0.515822        -0.436859        -0.971433
 H         2.406549        -0.725662        -2.130889
 H         4.281004         0.453782         0.027417
 H         4.701437         2.705608        -1.023628
 H         3.638770         2.044764        -2.423699
 H         2.846375         4.092588        -1.132125
 H         1.738314         2.828965        -1.814248
 H         2.620892         1.303460         1.476611
