19
Iteration:   244
 C        -0.061025         0.145658        -0.106260
 C         1.412616         0.142677        -0.305390
 O         2.012342        -1.070984         0.045907
 C         2.517787        -0.302733        -1.124492
 C         3.481333         0.729201        -0.564214
 C         3.653692         2.204503        -1.337615
 C         2.393920         2.942028        -1.086125
 O         2.100252         2.618996         0.287343
 C         2.273606         1.175238         0.408805
 H        -0.197296        -0.256271         0.899948
 H        -0.547070         1.143775        -0.068119
 H        -0.649719        -0.559219        -0.719641
 H         2.495074        -0.819092        -2.186520
 H         4.458187         0.288296        -0.200826
 H         4.602642         2.679291        -0.986655
 H         3.842863         2.002983        -2.415630
 H         2.449827         4.056934        -1.265605
 H         1.584425         2.638203        -1.831402
 H         2.332067         1.065997         1.457209
