19
Iteration:   860charge 0 multiplicity 1
 C        -0.044621         0.159145        -0.140622
 C         1.478308         0.254722        -0.194234
 O         2.088398        -1.018437        -0.023986
 C         2.537717        -0.251714        -1.095335
 C         3.502179         0.838996        -0.498359
 C         3.649596         2.031900        -1.393422
 C         2.361894         2.861237        -1.056185
 O         1.927947         2.524672         0.255634
 C         2.291021         1.218867         0.440457
 H        -0.478774         0.220533         0.963409
 H        -0.400806         0.975405        -0.809662
 H        -0.418371        -0.698561        -0.802508
 H         2.548283        -0.958374        -2.018996
 H         4.419655         0.448298         0.012558
 H         4.607923         2.692898        -1.196149
 H         3.764253         1.807151        -2.490227
 H         2.537856         3.953742        -1.113413
 H         1.594343         2.584940        -1.833968
 H         2.483228         0.965482         1.468295
