19
Iteration:   135charge 0 multiplicity 1
 C        -0.059342         0.315879        -0.121526
 C         1.400500         0.213956        -0.309062
 O         2.245029        -0.984796         0.020047
 C         2.520798        -0.254310        -1.204125
 C         3.435469         0.774992        -0.588678
 C         3.659808         1.995151        -1.320002
 C         2.369205         2.792056        -1.110553
 O         1.973053         2.562372         0.361747
 C         2.220577         1.158077         0.469982
 H        -0.172048         0.358786         0.953233
 H        -0.333448         1.304329        -0.550804
 H        -0.798795        -0.350112        -0.569521
 H         2.506165        -0.957696        -2.139724
 H         4.388453         0.384911        -0.088925
 H         4.577894         2.513234        -0.912712
 H         3.904839         1.849074        -2.371174
 H         2.247027         3.877460        -1.371312
 H         1.599029         2.328232        -1.705969
 H         2.265924         0.949234         1.487406
