19
Iteration:   211
 C        -0.138207         0.121740        -0.180787
 C         1.363249         0.168828        -0.089331
 O         2.215262        -1.013974        -0.014553
 C         2.396418        -0.176914        -1.148880
 C         3.360853         0.793138        -0.495178
 C         3.687373         2.063236        -1.391489
 C         2.472648         2.905131        -1.154216
 O         2.059436         2.555627         0.248582
 C         2.328248         1.170574         0.527199
 H        -0.589506        -0.414775         0.660244
 H        -0.664981         1.087357        -0.175615
 H        -0.478204        -0.432117        -1.064760
 H         2.395067        -0.469587        -2.264225
 H         4.288673         0.281204        -0.180579
 H         4.598472         2.639783        -1.095771
 H         3.728796         1.764849        -2.434420
 H         2.672361         4.010822        -1.081511
 H         1.642203         2.663278        -1.832429
 H         2.604265         1.101837         1.550832
