19
Iteration:    86charge 0 multiplicity 1
 C         0.012242         0.142514        -0.306456
 C         1.451600         0.162899         0.034400
 O         2.054799        -1.159438        -0.051499
 C         2.335424        -0.140062        -1.075536
 C         3.385656         0.799569        -0.547482
 C         3.633756         2.061038        -1.382555
 C         2.406160         2.917552        -1.120220
 O         2.025374         2.575633         0.244692
 C         2.478795         1.245875         0.588500
 H        -0.738924        -0.087061         0.488520
 H        -0.284394         0.984470        -0.923431
 H         0.016694        -0.682496        -1.042593
 H         2.056135        -0.301635        -2.059333
 H         4.259778         0.275657        -0.265477
 H         4.559299         2.547412        -1.160109
 H         3.654169         1.763079        -2.460481
 H         2.590750         3.975477        -1.158963
 H         1.557028         2.739536        -1.842457
 H         2.837328         1.297904         1.684626
