19
Iteration:  2551charge 0 multiplicity 1
 C        -0.087319        -0.041783        -0.269566
 C         1.414861         0.082316        -0.086658
 O         2.214701        -1.046495         0.191214
 C         2.514881        -0.394101        -1.041991
 C         3.446308         0.827496        -0.624928
 C         3.471042         2.118805        -1.540078
 C         2.822353         3.221701        -0.790959
 O         1.746100         2.561843         0.007181
 C         2.215619         1.289020         0.457467
 H        -0.649589        -0.507701         0.563548
 H        -0.521748         0.874151        -0.591212
 H        -0.160790        -0.748813        -1.132794
 H         2.589951        -1.049842        -1.954440
 H         4.413418         0.531454        -0.231594
 H         4.478322         2.295840        -1.883557
 H         2.928275         1.751258        -2.491948
 H         3.470325         3.813202        -0.061680
 H         2.258161         3.937264        -1.492105
 H         2.474933         1.065575         1.494537
