19
Iteration:  1902
 C        -0.086310         0.212367        -0.092213
 C         1.414926         0.079154        -0.154096
 O         2.159236        -1.089762        -0.062359
 C         2.553987        -0.260790        -1.089869
 C         3.462000         0.876172        -0.515908
 C         3.762957         2.184140        -1.219672
 C         2.420089         2.862543        -1.242073
 O         1.846625         2.489231         0.158840
 C         2.275150         1.186166         0.481107
 H        -0.407542        -0.193548         0.894685
 H        -0.202044         1.317261        -0.133100
 H        -0.746951        -0.358594        -0.889038
 H         2.545610        -0.648569        -2.150945
 H         4.429101         0.530810        -0.158572
 H         4.374585         2.878269        -0.709819
 H         4.008548         2.118013        -2.316520
 H         2.448024         3.908547        -1.056061
 H         1.621016         2.699205        -1.989031
 H         2.435411         1.117878         1.582379
