19
Iteration:  1426charge 0 multiplicity 1
 C        -0.022867         0.157655        -0.360441
 C         1.398522         0.152645        -0.070926
 O         2.093647        -1.120562         0.058879
 C         2.582610        -0.247141        -0.998442
 C         3.494137         0.889238        -0.518813
 C         3.543064         2.064372        -1.423268
 C         2.326610         2.879182        -1.136284
 O         1.997274         2.544986         0.267960
 C         2.384406         1.248438         0.528161
 H        -0.634144        -0.160547         0.467860
 H        -0.315066         1.151150        -0.683180
 H        -0.220960        -0.406105        -1.247438
 H         2.325686        -0.506780        -2.088721
 H         4.494702         0.430173        -0.297619
 H         4.430741         2.691210        -1.125134
 H         3.714873         1.987898        -2.578768
 H         2.392265         3.990242        -1.150536
 H         1.552044         2.498216        -1.734764
 H         2.563174         1.242444         1.610832
