19
Iteration:  3408charge 0 multiplicity 1
 C        -0.032483         0.178374        -0.168407
 C         1.470956         0.161272        -0.075019
 O         2.123950        -1.134773        -0.080902
 C         2.480268        -0.141198        -1.123905
 C         3.451658         0.815937        -0.495637
 C         3.668322         2.173088        -1.351499
 C         2.309288         2.775531        -1.175868
 O         1.985389         2.574534         0.202065
 C         2.344596         1.239555         0.547881
 H        -0.367593        -0.198922         0.811165
 H        -0.459344         1.127264        -0.412608
 H        -0.336962        -0.632314        -0.905564
 H         2.360416        -0.597388        -2.078208
 H         4.353347         0.446184         0.014042
 H         4.464538         2.756151        -0.777216
 H         4.001485         1.923130        -2.372600
 H         2.279428         3.865139        -1.329014
 H         1.566749         2.212347        -1.784133
 H         2.314254         1.079704         1.632271
