19
Iteration:  4470charge 0 multiplicity 1
 C        -0.092265         0.112095        -0.364943
 C         1.351890         0.144568        -0.249395
 O         2.180506        -1.059907         0.080602
 C         2.507182        -0.308051        -1.077322
 C         3.488053         0.761292        -0.644301
 C         3.591089         2.179876        -1.356026
 C         2.255170         2.961080        -1.012721
 O         2.110555         2.616234         0.397057
 C         2.383344         1.209393         0.486486
 H        -0.597322        -0.215459         0.657152
 H        -0.500390         0.960161        -0.781173
 H        -0.373903        -0.819493        -0.972134
 H         2.370373        -0.852254        -2.026176
 H         4.465893         0.289719        -0.415262
 H         4.507007         2.647763        -1.004467
 H         3.623160         2.233676        -2.429188
 H         2.028488         4.025944        -1.091755
 H         1.534109         2.629782        -1.752216
 H         2.714599         0.926881         1.432265
