19
Iteration:   800charge 0 multiplicity 1
 C        -0.058247         0.087932        -0.196238
 C         1.366461         0.179370        -0.155120
 O         2.164063        -1.087251         0.083908
 C         2.355966        -0.163761        -1.123432
 C         3.484992         0.802809        -0.615528
 C         3.730550         2.073487        -1.345352
 C         2.463130         2.914099        -1.108390
 O         1.917388         2.553883         0.198928
 C         2.332816         1.251025         0.548277
 H        -0.429466        -0.601737         0.456920
 H        -0.407344         1.038960         0.182693
 H        -0.412716        -0.211720        -1.140290
 H         2.203203        -0.622283        -2.094631
 H         4.438331         0.330942        -0.345952
 H         4.562185         2.615353        -0.954018
 H         3.960563         1.844583        -2.390417
 H         2.491073         4.037004        -1.262440
 H         1.834100         2.626684        -2.043122
 H         2.580862         1.183297         1.650177
