19
Iteration:  2175charge 0 multiplicity 1
 C        -0.016270         0.124577        -0.111749
 C         1.415492         0.137683        -0.118102
 O         2.115348        -1.158152        -0.082474
 C         2.494553        -0.162299        -1.091882
 C         3.569623         0.829154        -0.499778
 C         3.677358         2.076894        -1.334582
 C         2.413444         2.937800        -1.083734
 O         1.814588         2.520000         0.126196
 C         2.303199         1.304821         0.521210
 H        -0.363519        -0.248480         0.842747
 H        -0.173636         1.157556        -0.336452
 H        -0.412142        -0.408475        -0.937176
 H         2.563510        -0.538708        -2.118977
 H         4.392817         0.264851        -0.123496
 H         4.582424         2.602201        -0.958977
 H         3.933515         2.108150        -2.423766
 H         2.521665         4.008637        -1.161427
 H         1.681509         2.561930        -1.856623
 H         2.334213         1.161384         1.625868
