19
Iteration:  2512
 C        -0.099709         0.058081        -0.187778
 C         1.390724         0.117328        -0.093917
 O         2.178234        -1.111795         0.062573
 C         2.611379        -0.289566        -1.015684
 C         3.442043         0.857481        -0.544775
 C         3.613939         2.045332        -1.504250
 C         2.628899         3.148497        -0.971180
 O         1.743693         2.572806         0.067650
 C         2.274050         1.153960         0.494321
 H        -0.655854        -0.501674         0.587354
 H        -0.491654         1.118627        -0.340542
 H        -0.299026        -0.573345        -1.092058
 H         2.769086        -0.840939        -1.989470
 H         4.435802         0.611825        -0.086674
 H         4.639002         2.475313        -1.578358
 H         3.092555         1.845653        -2.403264
 H         3.339459         3.866249        -0.591672
 H         1.958384         3.639071        -1.641759
 H         2.352927         1.331191         1.562093
