19
Iteration:  3017
 C        -0.066018         0.059181        -0.115625
 C         1.388846         0.151893        -0.142623
 O         2.191618        -1.105383        -0.033167
 C         2.561150        -0.300922        -1.083070
 C         3.479023         0.808880        -0.482935
 C         3.525315         2.094720        -1.436672
 C         2.575144         3.136961        -0.960024
 O         1.809079         2.597278         0.109667
 C         2.274119         1.156769         0.455354
 H        -0.479572         0.172195         0.923275
 H        -0.406556         0.725615        -0.857713
 H        -0.303027        -1.031515        -0.493300
 H         2.620650        -0.760887        -2.104220
 H         4.354636         0.237032        -0.078134
 H         4.539012         2.519318        -1.588206
 H         3.429757         1.629428        -2.350767
 H         3.152274         4.020840        -0.536087
 H         1.987681         3.395740        -1.803780
 H         2.470057         1.378926         1.480185
