19
Iteration:  2809
 C        -0.161398        -0.126849        -0.184989
 C         1.361504         0.080429        -0.190226
 O         2.246765        -1.103676         0.110480
 C         2.578120        -0.338979        -1.041895
 C         3.369355         0.958893        -0.588868
 C         3.447948         2.011728        -1.494948
 C         2.960789         3.245324        -0.754687
 O         1.728484         2.539657        -0.021523
 C         2.237339         1.312638         0.389274
 H        -0.486693         0.101472         0.811012
 H        -0.737751         0.500923        -0.839477
 H        -0.544338        -1.137930        -0.193340
 H         2.557907        -0.980248        -1.938913
 H         4.387053         0.740786        -0.137010
 H         4.494794         2.397868        -1.863011
 H         2.724285         2.287233        -2.404167
 H         3.663841         3.505676        -0.020316
 H         2.580389         4.022240        -1.299123
 H         2.461137         1.310800         1.478310
