19
Iteration:  1275
 C        -0.030700         0.182434        -0.091839
 C         1.443594         0.168411        -0.231254
 O         2.073174        -1.121083        -0.116546
 C         2.614206        -0.210581        -1.105905
 C         3.467681         0.821056        -0.418607
 C         3.637688         2.118165        -1.286457
 C         2.285425         2.772163        -1.203201
 O         1.919466         2.661445         0.226180
 C         2.350720         1.182697         0.484996
 H        -0.221784         0.051001         1.038087
 H        -0.423383         1.221936        -0.345981
 H        -0.345291        -0.744050        -0.629010
 H         2.787916        -0.670298        -2.110261
 H         4.428100         0.468100         0.061705
 H         4.445820         2.766687        -0.893830
 H         3.958038         1.883490        -2.259320
 H         2.511821         3.827430        -1.433963
 H         1.486074         2.407660        -1.924421
 H         2.495668         1.176902         1.595079
