19
Iteration:  2222charge 0 multiplicity 1
 C        -0.018506         0.233047        -0.196448
 C         1.397938         0.103434        -0.126796
 O         2.211143        -1.145091         0.038663
 C         2.528763        -0.231587        -1.098047
 C         3.413232         0.814927        -0.646404
 C         3.710833         2.182735        -1.250113
 C         2.376725         2.852751        -1.070901
 O         1.874469         2.580884         0.206296
 C         2.290533         1.189030         0.397822
 H        -0.417303         0.185951         0.858959
 H        -0.389680         1.149962        -0.788655
 H        -0.461892        -0.630273        -0.688353
 H         2.200396        -0.680892        -2.039920
 H         4.318125         0.441141        -0.182283
 H         4.456554         2.706279        -0.765381
 H         4.096897         2.154211        -2.280140
 H         2.541179         3.986335        -1.033015
 H         1.630907         2.580622        -1.893631
 H         2.495362         0.844713         1.414220
