19
Iteration:  3462charge 0 multiplicity 1
 C        -0.075570        -0.122189        -0.221990
 C         1.389985         0.051275        -0.164848
 O         2.164401        -1.030613         0.105913
 C         2.459590        -0.312096        -1.066823
 C         3.357101         0.836109        -0.563807
 C         3.602789         2.071488        -1.464230
 C         2.582644         3.119439        -0.988062
 O         1.957490         2.657862         0.258831
 C         2.341514         1.319670         0.377469
 H        -0.442214        -0.515665         0.769355
 H        -0.500555         0.851438        -0.428143
 H        -0.428629        -0.724739        -1.146625
 H         2.275615        -0.799586        -1.987018
 H         4.327579         0.452655        -0.210974
 H         4.623355         2.409221        -1.384830
 H         3.579015         1.730620        -2.490396
 H         2.909948         4.165964        -0.942380
 H         1.715091         3.224754        -1.702710
 H         2.329581         1.056877         1.432469
