19
Iteration:   660
 C        -0.086261         0.237116        -0.175838
 C         1.413129         0.134032        -0.312338
 O         2.150086        -1.013904         0.061165
 C         2.532035        -0.334855        -1.108882
 C         3.444263         0.776408        -0.555949
 C         3.629320         2.128180        -1.368407
 C         2.328698         2.896929        -1.048236
 O         2.081415         2.554383         0.308381
 C         2.275442         1.166625         0.415886
 H        -0.486500         0.609298         0.829830
 H        -0.434732         1.118070        -0.889188
 H        -0.587770        -0.761392        -0.404694
 H         2.734384        -0.806845        -2.089828
 H         4.386743         0.482614        -0.056733
 H         4.457124         2.715742        -0.967267
 H         3.761618         1.804988        -2.467716
 H         2.280710         4.014687        -1.162252
 H         1.526460         2.649127        -1.721199
 H         2.457817         0.917125         1.494130
