19
Iteration:  4209
 C        -0.088624         0.253267        -0.237363
 C         1.410658         0.054447        -0.145753
 O         2.212960        -1.182861        -0.006354
 C         2.549851        -0.240957        -1.025924
 C         3.443148         0.840403        -0.559023
 C         3.542262         2.111123        -1.437678
 C         2.461478         3.083305        -0.970743
 O         1.855420         2.454890         0.188488
 C         2.358762         1.181438         0.456326
 H        -0.501045        -0.200483         0.746166
 H        -0.252999         1.248342        -0.410651
 H        -0.508276        -0.463890        -1.013394
 H         2.699429        -0.552125        -2.077264
 H         4.410967         0.538248        -0.170280
 H         4.382034         2.696228        -1.049591
 H         3.659189         2.083468        -2.529920
 H         2.747962         4.055543        -0.553627
 H         1.663213         3.104721        -1.689388
 H         2.705547         1.174863         1.504193
