19
Iteration:  1533charge 0 multiplicity 1
 C        -0.082837         0.084466        -0.264598
 C         1.439406         0.103114        -0.080018
 O         2.187186        -1.116613         0.085634
 C         2.484170        -0.190918        -1.000115
 C         3.470787         0.877662        -0.547826
 C         3.666858         2.041250        -1.419956
 C         2.487090         3.052484        -1.071175
 O         1.825869         2.515359         0.150681
 C         2.326115         1.198274         0.435276
 H        -0.636216         0.028730         0.702571
 H        -0.490260         1.021207        -0.638493
 H        -0.468488        -0.775897        -0.799852
 H         2.260487        -0.535772        -2.058527
 H         4.330700         0.448742        -0.031189
 H         4.595785         2.563649        -1.188561
 H         3.714146         1.755850        -2.491650
 H         2.805999         4.108839        -0.776535
 H         1.880730         3.222081        -2.013146
 H         2.532270         1.226611         1.528284
