19
Iteration:  2293
 C        -0.054490         0.092828        -0.296313
 C         1.413806         0.168363        -0.178417
 O         2.145625        -1.073812         0.059462
 C         2.576274        -0.229140        -1.120456
 C         3.487558         0.773516        -0.509453
 C         3.553952         2.038781        -1.338275
 C         2.305463         2.908725        -1.077465
 O         2.076746         2.638570         0.298433
 C         2.272136         1.245111         0.465448
 H        -0.635071        -0.295183         0.546416
 H        -0.514596         0.994355        -0.653147
 H        -0.321048        -0.601664        -1.158863
 H         2.516429        -0.552114        -2.195828
 H         4.511945         0.364934        -0.104526
 H         4.435565         2.726382        -1.055476
 H         3.669393         1.984313        -2.402384
 H         2.515843         3.928464        -1.266582
 H         1.470987         2.573383        -1.694971
 H         2.375965         1.309642         1.557654
