19
Iteration:  3584
 C        -0.015457         0.044618        -0.326083
 C         1.458832         0.142865        -0.026893
 O         2.248215        -1.093060         0.190550
 C         2.506171        -0.332402        -1.041170
 C         3.357728         0.902559        -0.611653
 C         3.370583         2.065565        -1.605979
 C         2.764267         3.111796        -0.731723
 O         1.722584         2.486725         0.017226
 C         2.352956         1.289957         0.394235
 H        -0.638490        -0.185459         0.662000
 H        -0.515036         1.013602        -0.618636
 H        -0.151173        -0.818938        -0.968799
 H         2.470485        -0.938417        -1.953859
 H         4.373383         0.588572        -0.219099
 H         4.356677         1.994985        -2.051018
 H         2.717110         1.972390        -2.433376
 H         3.489429         3.384574         0.079080
 H         2.447187         4.009718        -1.277629
 H         2.604734         1.425066         1.477408
