19
Iteration:  3277
 C        -0.064511        -0.136958        -0.337516
 C         1.331213         0.179534        -0.158127
 O         2.209983        -1.113410         0.092943
 C         2.423277        -0.238231        -1.061304
 C         3.394874         0.810793        -0.496235
 C         3.518079         2.074407        -1.455132
 C         2.516398         3.083422        -1.070935
 O         2.078335         2.714097         0.286912
 C         2.297719         1.263021         0.506947
 H        -0.442925        -0.476139         0.614562
 H        -0.756049         0.553424        -0.670980
 H        -0.115554        -1.072307        -0.982918
 H         2.156728        -0.685007        -2.059158
 H         4.458386         0.507658        -0.315211
 H         4.621898         2.448571        -1.343377
 H         3.572664         1.777099        -2.538752
 H         2.861646         4.114625        -1.164483
 H         1.625300         3.095353        -1.647280
 H         2.636762         1.148445         1.538305
