19
Iteration:  1154charge 0 multiplicity 1
 C        -0.047567         0.034347        -0.297422
 C         1.419541         0.233811        -0.193042
 O         2.150992        -1.053655         0.010469
 C         2.526142        -0.266944        -1.078155
 C         3.430739         0.808554        -0.507194
 C         3.632054         1.994533        -1.460964
 C         2.409896         2.904493        -1.027899
 O         1.953678         2.641719         0.329205
 C         2.304201         1.326463         0.506368
 H        -0.478055        -0.253701         0.709993
 H        -0.524507         0.960884        -0.657928
 H        -0.177381        -0.861283        -0.943962
 H         2.567604        -0.492076        -2.095839
 H         4.330101         0.420842         0.015788
 H         4.558795         2.548894        -1.415512
 H         3.446135         1.693721        -2.453111
 H         2.578252         3.983485        -1.120997
 H         1.646391         2.623102        -1.636522
 H         2.512790         0.996935         1.499873
