19
Iteration:  1473charge 0 multiplicity 1
 C        -0.083371         0.243814        -0.395330
 C         1.381649         0.152058        -0.137020
 O         2.155066        -1.078895         0.051309
 C         2.621152        -0.287706        -1.063663
 C         3.508544         0.838848        -0.542704
 C         3.554072         2.131112        -1.376420
 C         2.230152         2.756426        -1.104514
 O         2.090225         2.629180         0.273244
 C         2.326806         1.220980         0.572402
 H        -0.444482         0.288162         0.664075
 H        -0.310197         1.172481        -0.968595
 H        -0.492486        -0.597624        -0.983334
 H         2.590566        -0.915240        -1.934441
 H         4.476007         0.584943        -0.033228
 H         4.453564         2.735144        -1.213579
 H         3.651289         1.806937        -2.383655
 H         2.110294         3.805221        -1.165022
 H         1.465062         2.124605        -1.609055
 H         2.348978         0.974255         1.636831
