19
Iteration:  2427charge 0 multiplicity 1
 C        -0.061667         0.031886        -0.216316
 C         1.409648         0.167539        -0.138437
 O         2.171272        -1.094997         0.046369
 C         2.460938        -0.175355        -1.134668
 C         3.384215         0.807028        -0.589767
 C         3.738695         2.097474        -1.279497
 C         2.396415         2.920091        -1.195576
 O         1.967334         2.584002         0.302244
 C         2.292812         1.248352         0.442595
 H        -0.430766         0.130602         0.832687
 H        -0.460729         0.983176        -0.721414
 H        -0.331699        -0.800856        -0.817391
 H         2.368594        -0.758805        -2.045191
 H         4.286960         0.290551        -0.189223
 H         4.512777         2.728307        -0.707996
 H         4.214959         2.271750        -2.182405
 H         2.324184         3.998591        -1.462923
 H         1.686807         2.385892        -1.889200
 H         2.393250         1.228075         1.578751
