19
Iteration:  1061charge 0 multiplicity 1
 C        -0.157814         0.151877        -0.039334
 C         1.405625         0.200537        -0.154212
 O         2.081267        -1.159413        -0.181174
 C         2.657589        -0.246890        -1.089194
 C         3.534222         0.844719        -0.384480
 C         3.681158         2.168202        -1.294644
 C         2.343904         2.852916        -1.218951
 O         1.946008         2.558903         0.178009
 C         2.328272         1.235299         0.502745
 H        -0.622417        -0.079451         0.953755
 H        -0.627068         1.141850        -0.374225
 H        -0.563165        -0.668268        -0.639942
 H         2.628302        -0.618549        -2.112676
 H         4.526115         0.526680        -0.065762
 H         4.514619         2.825802        -0.931731
 H         3.830656         1.817156        -2.362427
 H         2.508431         3.908358        -1.327812
 H         1.638237         2.416877        -1.951669
 H         2.449433         1.301189         1.625326
