19
Iteration:  4193
 C        -0.033820         0.107919        -0.222769
 C         1.473376         0.101368        -0.218457
 O         2.199581        -1.146176         0.006314
 C         2.575479        -0.316848        -1.137872
 C         3.426454         0.852885        -0.510720
 C         3.539080         2.101895        -1.428713
 C         2.443079         3.089518        -0.970075
 O         1.910564         2.582234         0.257736
 C         2.256130         1.165738         0.495937
 H        -0.468747        -0.059423         0.722750
 H        -0.371962         1.212295        -0.441075
 H        -0.504826        -0.338195        -1.065231
 H         2.460767        -0.915206        -2.054285
 H         4.445176         0.621357        -0.119783
 H         4.601823         2.335821        -1.448216
 H         3.297975         1.720311        -2.436956
 H         2.947377         4.101614        -0.774733
 H         1.660553         3.500159        -1.652143
 H         2.248239         1.053946         1.589681
