19
Iteration:  2569
 C        -0.098608        -0.127693        -0.296111
 C         1.376263         0.062241        -0.152532
 O         2.239230        -1.078154         0.215298
 C         2.540853        -0.282985        -0.966949
 C         3.367518         0.919611        -0.591310
 C         3.435776         2.035101        -1.606717
 C         2.839140         3.144249        -0.683522
 O         1.767699         2.586346        -0.035443
 C         2.275319         1.271042         0.364056
 H        -0.486046        -0.111956         0.771906
 H        -0.555686         0.866134        -0.698070
 H        -0.436180        -0.912384        -0.975081
 H         2.499225        -0.691580        -1.938884
 H         4.319624         0.776415        -0.046691
 H         4.476832         2.264911        -2.052951
 H         2.834948         1.985367        -2.455383
 H         3.693574         3.377860        -0.074085
 H         2.448143         4.098863        -1.049425
 H         2.487265         1.398155         1.465147
