19
Iteration:   684charge 0 multiplicity 1
 C        -0.029399         0.263937        -0.271261
 C         1.466163         0.079275        -0.150594
 O         2.157465        -1.192476         0.043284
 C         2.445604        -0.269764        -1.103878
 C         3.438912         0.738904        -0.591008
 C         3.626703         2.141195        -1.364027
 C         2.350548         2.912460        -1.101712
 O         1.989750         2.638869         0.287161
 C         2.324103         1.206938         0.512943
 H        -0.474318         0.652952         0.738095
 H        -0.303560         1.169861        -0.930029
 H        -0.630437        -0.688647        -0.480983
 H         2.410967        -0.791237        -2.071499
 H         4.437083         0.423911        -0.239617
 H         4.370284         2.703685        -0.775919
 H         3.860790         2.135749        -2.482038
 H         2.564191         3.964453        -1.311674
 H         1.504298         2.774302        -1.786926
 H         2.669567         1.075484         1.522648
