19
Iteration:   316charge 0 multiplicity 1
 C        -0.074181         0.278468        -0.208478
 C         1.445385         0.192212        -0.123557
 O         2.098211        -1.134162        -0.072654
 C         2.469862        -0.243827        -1.110793
 C         3.513644         0.761534        -0.547151
 C         3.583838         2.050405        -1.330348
 C         2.304142         2.839577        -1.130538
 O         2.021124         2.579063         0.294022
 C         2.443988         1.214881         0.539975
 H        -0.583161         0.382713         0.785830
 H        -0.365218         1.156496        -0.807165
 H        -0.512034        -0.602455        -0.693432
 H         2.399630        -0.463632        -2.219981
 H         4.455936         0.311805        -0.232924
 H         4.349413         2.773749        -1.027914
 H         3.780862         2.051947        -2.415617
 H         2.385266         3.947740        -1.248260
 H         1.437469         2.610237        -1.748174
 H         2.740094         1.033622         1.630665
