19
Iteration:  3855charge 0 multiplicity 1
 C        -0.077194         0.078269        -0.262790
 C         1.434059         0.054302        -0.194141
 O         2.197415        -1.131558         0.235693
 C         2.672727        -0.325590        -0.985642
 C         3.424864         0.965736        -0.674995
 C         3.310208         2.036904        -1.685252
 C         2.834046         3.138753        -0.686607
 O         1.699971         2.506975         0.043759
 C         2.261119         1.238395         0.410744
 H        -0.219430         0.306528         0.812262
 H        -0.291107         1.060447        -0.818628
 H        -0.570796        -0.861146        -0.567141
 H         2.696730        -0.808675        -2.019188
 H         4.363010         0.799417        -0.138285
 H         4.305461         2.218351        -2.201289
 H         2.553293         1.775849        -2.515078
 H         3.546779         3.428737         0.143919
 H         2.558889         4.167046        -1.023028
 H         2.605242         1.104256         1.426930
