19
Iteration:  1962
 C        -0.068364         0.041621        -0.355963
 C         1.376203         0.200978        -0.125940
 O         2.119903        -1.066742         0.063941
 C         2.426786        -0.174183        -1.042118
 C         3.539816         0.881246        -0.508606
 C         3.658559         2.119235        -1.343910
 C         2.310743         2.866928        -1.105613
 O         2.044071         2.554441         0.247389
 C         2.345643         1.250314         0.506812
 H        -0.402257        -0.470319         0.557294
 H        -0.772860         0.863040        -0.568911
 H        -0.189071        -0.694665        -1.116657
 H         2.571200        -0.669843        -2.032215
 H         4.420571         0.249295        -0.200312
 H         4.677138         2.748417        -1.288257
 H         3.675099         1.813792        -2.436566
 H         2.528775         3.994713        -1.159591
 H         1.551560         2.554073        -1.958139
 H         2.478887         1.027518         1.566360
