19
Iteration:  2964
 C        -0.075825         0.099919        -0.280890
 C         1.442850         0.130147        -0.110986
 O         2.225823        -1.171138         0.124168
 C         2.474426        -0.334828        -1.056804
 C         3.440735         0.871349        -0.615841
 C         3.558816         2.063754        -1.469183
 C         2.568310         3.198467        -0.875856
 O         1.816050         2.507789         0.118936
 C         2.323068         1.246893         0.478712
 H        -0.356783        -0.296379         0.691829
 H        -0.527120         1.004073        -0.369487
 H        -0.344637        -0.485224        -1.179471
 H         2.251135        -0.852252        -2.029463
 H         4.362869         0.447475        -0.325026
 H         4.646242         2.310651        -1.515524
 H         3.229989         1.698343        -2.565898
 H         2.905883         4.213746        -0.576296
 H         1.915513         3.299435        -1.678581
 H         2.690162         1.406554         1.463764
