19
Iteration:  4784
 C        -0.139019        -0.148557        -0.224626
 C         1.346943         0.081722        -0.235219
 O         2.283946        -1.112664         0.211810
 C         2.500576        -0.423492        -1.039889
 C         3.363335         0.840954        -0.721495
 C         3.424619         2.154773        -1.513040
 C         2.892879         3.298223        -0.699487
 O         1.871552         2.661010         0.123058
 C         2.195462         1.241514         0.297437
 H        -0.655926        -0.399165         0.793423
 H        -0.765665         0.689458        -0.531300
 H        -0.410137        -0.955264        -0.977985
 H         2.300585        -1.073712        -1.922909
 H         4.334561         0.663531        -0.275349
 H         4.461964         2.249085        -1.804497
 H         2.866356         2.025822        -2.414039
 H         3.603202         3.786752         0.029996
 H         2.443287         4.126944        -1.345704
 H         2.550055         1.020083         1.355996
