19
Iteration:   203
 C        -0.075941         0.101125        -0.204055
 C         1.366453         0.131776        -0.040290
 O         2.132060        -1.088307        -0.013951
 C         2.367763        -0.102621        -1.110540
 C         3.458902         0.808123        -0.542050
 C         3.641578         2.037067        -1.343348
 C         2.452891         2.965604        -1.137291
 O         2.066846         2.557805         0.181132
 C         2.329884         1.197001         0.543578
 H        -0.376200        -0.475266         0.669503
 H        -0.380408         1.145095        -0.279028
 H        -0.259239        -0.425364        -1.147024
 H         2.113332        -0.356928        -2.081314
 H         4.408876         0.234653        -0.177443
 H         4.571415         2.520548        -1.103789
 H         3.749657         1.815853        -2.457077
 H         2.570731         4.031099        -1.186779
 H         1.659157         2.765790        -1.871024
 H         2.497482         1.022183         1.600875
