19
Iteration:  4542
 C         0.042659         0.255859        -0.105036
 C         1.471213         0.115683        -0.087843
 O         2.122212        -1.144448        -0.163550
 C         2.516439        -0.107594        -1.153032
 C         3.470103         0.819518        -0.471151
 C         3.684115         2.139316        -1.302793
 C         2.295127         2.841673        -1.166136
 O         1.827748         2.477851         0.176154
 C         2.393892         1.176316         0.573482
 H        -0.320599        -0.085815         0.821449
 H        -0.198330         1.373161        -0.107344
 H        -0.483826        -0.249658        -0.884899
 H         2.431130        -0.228427        -2.194878
 H         4.320254         0.304956        -0.055669
 H         4.503349         2.771741        -0.825218
 H         3.951663         1.827455        -2.342470
 H         2.268847         3.942095        -1.252690
 H         1.496668         2.483244        -1.900231
 H         2.580890         1.075478         1.714840
