19
Iteration:  1070
 C        -0.106100         0.182320        -0.049886
 C         1.400703         0.203262        -0.222100
 O         2.113669        -1.072690        -0.124287
 C         2.578679        -0.258986        -1.091810
 C         3.535712         0.874483        -0.447206
 C         3.676188         2.115747        -1.255203
 C         2.363335         2.843863        -1.181754
 O         1.913204         2.523818         0.150512
 C         2.334185         1.180156         0.480110
 H        -0.210791         0.143885         1.038690
 H        -0.701216         1.009964        -0.430822
 H        -0.425355        -0.661173        -0.575500
 H         2.645347        -0.569248        -2.069774
 H         4.360278         0.532736         0.166131
 H         4.581463         2.751845        -0.921100
 H         3.973207         1.871968        -2.300166
 H         2.352453         3.890463        -1.246787
 H         1.427673         2.545406        -1.835325
 H         2.408669         1.020415         1.590768
