19
Iteration:  3690charge 0 multiplicity 1
 C         0.042686         0.034751        -0.108633
 C         1.461053        -0.002122         0.014589
 O         2.209988        -1.160888         0.090615
 C         2.403753        -0.249025        -1.131116
 C         3.399138         0.905749        -0.622948
 C         3.565282         2.144999        -1.535445
 C         2.784800         3.158216        -0.736175
 O         1.670721         2.487162        -0.119297
 C         2.245100         1.304212         0.446628
 H        -0.468853         0.009720         0.785999
 H        -0.337988         0.796967        -0.761950
 H        -0.471581        -0.823624        -0.614834
 H         2.252325        -0.855466        -1.994143
 H         4.153822         0.273096        -0.219617
 H         4.589281         2.446078        -1.518581
 H         3.129097         1.771955        -2.581880
 H         3.523978         3.621676        -0.050302
 H         2.397307         3.971210        -1.395831
 H         2.545131         1.448349         1.509781
