19
Iteration:  1329charge 0 multiplicity 1
 C        -0.051590        -0.041258        -0.162701
 C         1.385974         0.063188        -0.020464
 O         2.254628        -1.109770         0.004043
 C         2.349627        -0.179579        -1.128119
 C         3.326504         0.819061        -0.584367
 C         3.750486         2.084951        -1.285676
 C         2.512731         3.036042        -1.212661
 O         1.912796         2.600861         0.179377
 C         2.317389         1.304598         0.515676
 H        -0.661451         0.004935         0.793409
 H        -0.485734         0.840904        -0.741688
 H        -0.502807        -0.816532        -0.792310
 H         2.000000        -0.553008        -2.154174
 H         4.354804         0.394474        -0.316244
 H         4.625063         2.429915        -0.703390
 H         4.338251         1.805448        -2.120683
 H         2.683718         4.172711        -1.253221
 H         1.671209         2.899437        -2.066668
 H         2.440531         1.365204         1.592183
