19
Iteration:  1551
 C        -0.086154        -0.014134        -0.187271
 C         1.377329         0.077584        -0.036462
 O         2.240521        -1.133077         0.079179
 C         2.424320        -0.271499        -1.087964
 C         3.356534         0.782251        -0.589190
 C         3.703639         2.149291        -1.402406
 C         2.612872         3.094643        -1.064337
 O         1.847128         2.563456         0.051626
 C         2.296107         1.322835         0.540094
 H        -0.957998        -0.252878         0.525604
 H        -0.383949         1.026796        -0.476644
 H        -0.386702        -0.789199        -0.996728
 H         2.439003        -0.730761        -2.018335
 H         4.294254         0.360756        -0.186942
 H         4.601211         2.553039        -0.947206
 H         3.731179         1.997169        -2.489311
 H         2.918873         4.074564        -0.744436
 H         1.843532         3.301264        -1.829000
 H         2.516002         1.323349         1.630321
