19
Iteration:  3122
 C        -0.113989         0.107804        -0.154916
 C         1.399589         0.108732        -0.189910
 O         2.174644        -1.138400        -0.018244
 C         2.522850        -0.199733        -1.084696
 C         3.460889         0.906853        -0.534812
 C         3.601443         2.082141        -1.342096
 C         2.375606         2.916664        -1.169008
 O         1.974224         2.612651         0.228324
 C         2.371659         1.204201         0.515456
 H        -0.384325        -0.470774         0.690820
 H        -0.604351         1.086341         0.016632
 H        -0.490353        -0.444866        -0.987866
 H         2.718362        -0.766622        -1.998048
 H         4.382293         0.600044        -0.023342
 H         4.433373         2.587110        -0.830582
 H         3.742520         1.800309        -2.461442
 H         2.618025         3.959326        -1.257674
 H         1.611716         2.708354        -1.960329
 H         2.410019         1.278998         1.599026
