19
Iteration:  3275
 C        -0.051479        -0.142252        -0.318620
 C         1.342959         0.195126        -0.168656
 O         2.207868        -1.131457         0.103949
 C         2.431542        -0.224261        -1.070759
 C         3.402605         0.797187        -0.509027
 C         3.512123         2.073593        -1.453316
 C         2.518753         3.087513        -1.064211
 O         2.077490         2.729903         0.279617
 C         2.286667         1.264940         0.504889
 H        -0.465373        -0.469084         0.605744
 H        -0.767123         0.554874        -0.747044
 H        -0.151861        -1.041409        -1.003914
 H         2.153839        -0.673073        -2.055090
 H         4.378333         0.463225        -0.235199
 H         4.574682         2.452710        -1.329012
 H         3.552634         1.721750        -2.543139
 H         2.842936         4.119692        -1.072186
 H         1.598689         3.058570        -1.660648
 H         2.637815         1.071069         1.500466
