19
Iteration:  1330charge 0 multiplicity 1
 C        -0.043025        -0.038619        -0.162055
 C         1.384317         0.060060        -0.016505
 O         2.253945        -1.112503         0.002175
 C         2.353399        -0.175834        -1.116234
 C         3.324461         0.816196        -0.586310
 C         3.749122         2.087805        -1.288344
 C         2.503769         3.039665        -1.211221
 O         1.919698         2.601549         0.167824
 C         2.318264         1.306039         0.514517
 H        -0.689478        -0.020428         0.795307
 H        -0.509798         0.834893        -0.764819
 H        -0.502452        -0.802662        -0.807769
 H         1.985648        -0.565868        -2.144160
 H         4.347589         0.375303        -0.331212
 H         4.608715         2.448457        -0.681762
 H         4.315824         1.791003        -2.101344
 H         2.726042         4.146570        -1.204049
 H         1.671253         2.941059        -2.060283
 H         2.421241         1.328622         1.605427
