19
Iteration:   324charge 0 multiplicity 1
 C        -0.090606         0.251036        -0.195624
 C         1.450517         0.197780        -0.181877
 O         2.021012        -1.168531        -0.041509
 C         2.472929        -0.253977        -1.155966
 C         3.567128         0.759220        -0.564422
 C         3.598067         2.163730        -1.341218
 C         2.264566         2.865419        -1.056204
 O         2.044474         2.591370         0.275882
 C         2.428746         1.208171         0.556543
 H        -0.318357         0.302270         0.878929
 H        -0.317423         1.168012        -0.735326
 H        -0.486841        -0.624635        -0.702624
 H         2.468919        -0.807153        -2.018354
 H         4.690609         0.423555        -0.316674
 H         4.525821         2.589035        -0.944971
 H         3.768262         1.871877        -2.455257
 H         2.456765         3.856192        -1.423963
 H         1.532565         2.330192        -1.776913
 H         2.567065         1.273774         1.643936
