19
Iteration:  2366
 C        -0.033769         0.225142        -0.226668
 C         1.484450         0.160684        -0.082517
 O         2.147375        -1.137757        -0.086080
 C         2.588536        -0.213288        -1.110401
 C         3.534435         0.844326        -0.413812
 C         3.578655         2.035478        -1.357621
 C         2.322627         2.874862        -1.098534
 O         1.901679         2.588470         0.197667
 C         2.322996         1.242240         0.536155
 H        -0.660752        -0.188549         0.582068
 H        -0.339759         1.245487        -0.419319
 H        -0.442946        -0.392886        -1.144986
 H         2.503175        -0.640276        -2.078032
 H         4.381362         0.325567         0.050644
 H         4.557089         2.508128        -1.140839
 H         3.573095         1.719873        -2.517299
 H         2.384514         4.003195        -1.193118
 H         1.630097         2.449844        -1.886025
 H         2.292289         1.171665         1.635854
