19
Iteration:  4295charge 0 multiplicity 1
 C        -0.011740        -0.021157        -0.078564
 C         1.384342         0.220655        -0.287573
 O         2.089180        -1.029348        -0.127193
 C         2.500895        -0.077446        -1.188769
 C         3.449615         0.818444        -0.459753
 C         3.722377         2.077617        -1.265759
 C         2.337596         2.813950        -1.119881
 O         2.001227         2.584227         0.270218
 C         2.298883         1.258307         0.489848
 H        -0.215722        -0.318497         1.011725
 H        -0.660846         0.746995        -0.252833
 H        -0.272773        -0.860331        -0.696832
 H         2.443699        -0.394554        -2.222157
 H         4.392640         0.405359        -0.116359
 H         4.511171         2.693587        -0.896000
 H         3.989572         1.754468        -2.230289
 H         2.401681         3.906744        -1.117681
 H         1.515321         2.370547        -1.727623
 H         2.498826         1.186527         1.509436
