19
Iteration:  3439charge 0 multiplicity 1
 C        -0.175098         0.005167        -0.165063
 C         1.377072         0.160585        -0.245556
 O         2.198292        -1.073539         0.088774
 C         2.526484        -0.263555        -1.125046
 C         3.434909         0.771759        -0.569477
 C         3.648158         2.155288        -1.418514
 C         2.445512         2.983331        -1.053544
 O         2.006626         2.605571         0.224143
 C         2.314132         1.247565         0.477796
 H        -0.196997        -0.408436         0.870849
 H        -0.808224         0.901261        -0.158379
 H        -0.727214        -0.646803        -1.009814
 H         2.540177        -0.975930        -1.945752
 H         4.338413         0.521137        -0.072197
 H         4.543818         2.565987        -1.072011
 H         3.907207         2.016644        -2.463201
 H         2.617056         4.068329        -1.055352
 H         1.639101         3.013498        -1.869899
 H         2.252856         1.158005         1.591969
