19
Iteration:  3741
 C        -0.017331         0.140545        -0.094098
 C         1.440076         0.050630        -0.193444
 O         2.199235        -1.123634         0.136386
 C         2.531068        -0.282883        -1.092519
 C         3.459173         0.883464        -0.580534
 C         3.527605         2.058681        -1.566155
 C         2.711387         3.182723        -0.782004
 O         1.693004         2.445544         0.019455
 C         2.250001         1.199938         0.391911
 H        -0.325288         0.026715         0.981858
 H        -0.435955         1.045414        -0.477514
 H        -0.638388        -0.663227        -0.680870
 H         2.540748        -0.579836        -2.134481
 H         4.341422         0.685204         0.073064
 H         4.596978         2.301092        -1.713213
 H         3.117555         1.867131        -2.538617
 H         3.294515         3.936619        -0.239844
 H         2.173570         3.736674        -1.590913
 H         2.462338         1.132293         1.454649
