19
Iteration:  2177charge 0 multiplicity 1
 C        -0.000296         0.141324        -0.114893
 C         1.407715         0.134509        -0.116728
 O         2.113826        -1.157603        -0.068015
 C         2.486554        -0.168265        -1.080394
 C         3.563787         0.853221        -0.507712
 C         3.676246         2.091334        -1.327742
 C         2.408882         2.933438        -1.080626
 O         1.824000         2.506907         0.119001
 C         2.294666         1.262639         0.495415
 H        -0.316923        -0.270303         0.889507
 H        -0.161078         1.250436        -0.384770
 H        -0.406396        -0.409407        -0.913312
 H         2.597015        -0.516527        -2.145016
 H         4.380241         0.312129        -0.114572
 H         4.527391         2.536189        -0.914693
 H         3.955195         2.125066        -2.409003
 H         2.547771         4.057102        -1.131105
 H         1.668358         2.589192        -1.891159
 H         2.380019         1.199408         1.618144
