19
Iteration:  1582
 C        -0.104569        -0.128641        -0.063599
 C         1.400911         0.143651        -0.186885
 O         2.136110        -1.057088         0.067028
 C         2.465208        -0.254892        -1.109925
 C         3.416449         0.824396        -0.571085
 C         3.742253         2.130174        -1.374029
 C         2.652677         3.038369        -1.023272
 O         1.826938         2.577572         0.027710
 C         2.222501         1.317629         0.467055
 H        -0.341503        -0.567437         0.923007
 H        -0.746914         0.784219        -0.027404
 H        -0.504614        -0.796937        -0.900653
 H         2.523763        -0.787926        -2.017836
 H         4.310032         0.387244        -0.049041
 H         4.662857         2.652218        -0.966090
 H         3.937599         2.005080        -2.549658
 H         3.093906         3.971245        -0.650979
 H         2.030368         3.310900        -1.864816
 H         2.307662         1.312762         1.550864
