19
Iteration:   436charge 0 multiplicity 1
 C        -0.059541         0.226307        -0.122614
 C         1.419299         0.173485        -0.234050
 O         2.138297        -1.081944         0.023359
 C         2.509082        -0.283335        -1.152360
 C         3.366475         0.854002        -0.579869
 C         3.685101         2.048033        -1.402380
 C         2.467430         2.918062        -1.038136
 O         1.948913         2.561416         0.287742
 C         2.287589         1.184148         0.438094
 H        -0.368164        -0.160337         0.874222
 H        -0.653798         1.124592        -0.325773
 H        -0.524798        -0.537789        -0.781819
 H         2.550374        -0.736836        -2.235569
 H         4.331536         0.470226        -0.018363
 H         4.703260         2.417631        -1.213348
 H         3.774275         1.745642        -2.459087
 H         2.739961         3.993842        -0.940872
 H         1.527510         2.929972        -1.660274
 H         2.651984         1.079421         1.509526
