19
Iteration:  2758charge 0 multiplicity 1
 C        -0.114466        -0.046355        -0.192908
 C         1.359643         0.094247        -0.120567
 O         2.263733        -1.129360         0.137940
 C         2.442578        -0.242787        -1.002746
 C         3.416852         0.857886        -0.549506
 C         3.602812         2.064486        -1.514802
 C         2.682983         3.191897        -0.824201
 O         1.795172         2.541993        -0.018341
 C         2.324983         1.233149         0.382025
 H        -0.636246        -0.583937         0.687607
 H        -0.611746         0.896366        -0.417352
 H        -0.305292        -0.659527        -1.176954
 H         2.258509        -0.628898        -2.074456
 H         4.210566         0.426328        -0.019984
 H         4.531693         2.610158        -1.604974
 H         3.246418         1.960983        -2.507807
 H         3.436001         3.850507        -0.214206
 H         2.084091         3.910583        -1.552865
 H         2.491420         1.225576         1.468629
