19
Iteration:  1210charge 0 multiplicity 1
 C         0.057595         0.235413        -0.391175
 C         1.466363         0.178580        -0.133216
 O         2.094989        -1.150607         0.108863
 C         2.478472        -0.355431        -1.015499
 C         3.536522         0.811734        -0.593312
 C         3.584723         2.164483        -1.414062
 C         2.278223         2.879406        -1.077226
 O         1.914002         2.632954         0.284064
 C         2.422562         1.169647         0.544832
 H        -0.489134        -0.394965         0.383911
 H        -0.537636         1.181169        -0.299738
 H        -0.325131        -0.183085        -1.356308
 H         2.401254        -0.600856        -2.067609
 H         4.534866         0.347513        -0.393355
 H         4.404464         2.874274        -1.161896
 H         3.712537         2.015178        -2.454690
 H         2.340136         3.924943        -1.283639
 H         1.547560         2.530287        -1.699019
 H         2.609043         1.025612         1.643221
