19
Iteration:  2830charge 0 multiplicity 1
 C        -0.045520        -0.088395        -0.202125
 C         1.392024         0.062350        -0.128596
 O         2.242586        -1.111352         0.204301
 C         2.509547        -0.322284        -1.071191
 C         3.397454         0.884438        -0.584699
 C         3.445981         2.116420        -1.588551
 C         2.847545         3.206792        -0.641382
 O         1.788597         2.625662        -0.045562
 C         2.157509         1.217478         0.293401
 H        -0.462192         0.330606         0.711352
 H        -0.465297         0.551110        -1.046213
 H        -0.467120        -1.088630        -0.267999
 H         2.611765        -0.951436        -1.955612
 H         4.434605         0.519873        -0.216537
 H         4.496336         2.254686        -2.088400
 H         2.676528         1.897319        -2.516538
 H         3.629706         3.339259         0.127156
 H         2.498522         4.129805        -0.970685
 H         2.321841         1.313902         1.386678
