19
Iteration:  2993charge 0 multiplicity 1
 C        -0.072993         0.063252        -0.221921
 C         1.432116         0.076613        -0.078075
 O         2.181362        -1.130538         0.085548
 C         2.520952        -0.241161        -1.110903
 C         3.457250         0.957188        -0.553229
 C         3.576280         2.043707        -1.519107
 C         2.563134         3.117525        -0.920759
 O         1.819090         2.515883         0.134902
 C         2.270863         1.189479         0.450151
 H        -0.418780         0.013140         0.835426
 H        -0.398583         1.024751        -0.770454
 H        -0.538915        -0.854446        -0.761288
 H         2.214288        -0.729895        -2.047312
 H         4.482317         0.511133        -0.260986
 H         4.569570         2.495015        -1.318556
 H         3.645641         1.681175        -2.470814
 H         3.200158         3.922403        -0.453055
 H         1.798790         3.433337        -1.683905
 H         2.694868         1.300259         1.480387
