19
Iteration:  4593charge 0 multiplicity 1
 C        -0.090372        -0.084199        -0.106660
 C         1.339058         0.163479        -0.159606
 O         2.155986        -1.005390        -0.009358
 C         2.417014        -0.172737        -1.203280
 C         3.456777         0.822872        -0.606589
 C         3.737806         2.181523        -1.283723
 C         2.463115         2.933787        -1.054879
 O         2.019084         2.561760         0.210387
 C         2.281019         1.253492         0.444288
 H        -0.332007        -0.456318         0.909473
 H        -0.737381         0.895217        -0.141361
 H        -0.340255        -0.824023        -0.856753
 H         2.240757        -0.681434        -2.122006
 H         4.363926         0.199834        -0.369226
 H         4.572232         2.617303        -0.768926
 H         3.839787         1.918036        -2.311743
 H         2.709731         3.972207        -1.039065
 H         1.609551         2.614437        -1.748712
 H         2.257436         1.118417         1.503922
