19
Iteration:  2944charge 0 multiplicity 1
 C        -0.044092         0.036457        -0.230632
 C         1.443935         0.120290        -0.097106
 O         2.169244        -1.103587         0.097463
 C         2.550987        -0.277671        -1.069423
 C         3.449382         0.827946        -0.521716
 C         3.514835         2.046391        -1.548600
 C         2.600092         3.124919        -0.947186
 O         1.806645         2.542851         0.151892
 C         2.269976         1.241979         0.451274
 H        -0.540807        -0.495243         0.593492
 H        -0.297761         1.059609        -0.198324
 H        -0.362418        -0.244160        -1.206700
 H         2.628407        -0.825017        -2.020321
 H         4.383833         0.511239        -0.187523
 H         4.524450         2.475950        -1.562909
 H         3.177553         1.970912        -2.657869
 H         3.285178         3.815836        -0.484137
 H         1.834648         3.618705        -1.569322
 H         2.559146         1.081416         1.497975
