19
Iteration:   420charge 0 multiplicity 1
 C        -0.104124         0.106525        -0.182137
 C         1.444258         0.151974        -0.143744
 O         2.026803        -1.092778        -0.012282
 C         2.455294        -0.203826        -1.062183
 C         3.576549         0.729451        -0.561495
 C         3.608764         2.078551        -1.435013
 C         2.452861         3.030330        -1.050667
 O         1.944956         2.547232         0.215456
 C         2.410210         1.234141         0.525916
 H        -0.409394        -0.280571         0.783823
 H        -0.249154         1.173000        -0.389838
 H        -0.428046        -0.470196        -1.044509
 H         2.296591        -0.679476        -1.953897
 H         4.537031         0.317387        -0.266606
 H         4.512016         2.662252        -1.215803
 H         3.503245         1.938685        -2.535329
 H         2.741169         4.062403        -0.826341
 H         1.712910         2.875527        -1.824265
 H         2.342000         1.047693         1.565916
