19
Iteration:  4553
 C        -0.040467         0.191309        -0.066427
 C         1.469476         0.109564        -0.128196
 O         2.161207        -1.165692        -0.149038
 C         2.434338        -0.181306        -1.173786
 C         3.526123         0.824869        -0.521760
 C         3.675001         2.156241        -1.220857
 C         2.294759         2.855148        -1.134435
 O         1.950302         2.522918         0.143031
 C         2.314735         1.238211         0.550593
 H        -0.417289        -0.182592         0.831476
 H        -0.221639         1.317126        -0.113542
 H        -0.524038        -0.255265        -0.916998
 H         2.248235        -0.502555        -2.166848
 H         4.481642         0.483055        -0.175449
 H         4.448329         2.775620        -0.670142
 H         3.962252         2.199681        -2.292918
 H         2.198817         3.947677        -1.192886
 H         1.752076         2.359493        -1.952054
 H         2.435595         1.250698         1.707457
