19
Iteration:  2352charge 0 multiplicity 1
 C        -0.002037         0.280445        -0.285887
 C         1.434837         0.139994        -0.141239
 O         2.198556        -1.137687        -0.007866
 C         2.544193        -0.273755        -1.021641
 C         3.437791         0.758524        -0.503307
 C         3.628704         2.068523        -1.339591
 C         2.300046         2.923845        -1.153075
 O         1.865934         2.525831         0.234485
 C         2.327302         1.216662         0.527946
 H        -0.479612        -0.162642         0.584707
 H        -0.169810         1.386637        -0.285346
 H        -0.225583        -0.182172        -1.187679
 H         2.650763        -0.540421        -2.063449
 H         4.473347         0.608536        -0.176914
 H         4.479154         2.825939        -1.048608
 H         3.655725         1.738103        -2.488981
 H         2.580890         4.018793        -1.112069
 H         1.463693         2.846271        -1.813906
 H         2.719044         1.314029         1.602285
