19
Iteration:  4642charge 0 multiplicity 1
 C        -0.119539        -0.033140        -0.213228
 C         1.367146         0.092987        -0.117951
 O         2.189004        -1.210904        -0.034415
 C         2.506565        -0.205735        -1.067239
 C         3.467945         0.857779        -0.491763
 C         3.536144         2.097446        -1.552624
 C         2.559545         3.172998        -1.009174
 O         1.960597         2.649427         0.254584
 C         2.277710         1.183041         0.509342
 H        -0.644961         0.009077         0.765358
 H        -0.452713         0.811922        -0.714523
 H        -0.294289        -0.969307        -0.814424
 H         2.312698        -0.625794        -2.120585
 H         4.398664         0.521677        -0.052198
 H         4.608125         2.325553        -1.397316
 H         3.194040         1.721516        -2.548764
 H         3.202314         4.018702        -0.621412
 H         1.843895         3.372404        -1.719039
 H         2.526340         1.258293         1.643286
