19
Iteration:  4370
 C        -0.051066         0.188990        -0.281179
 C         1.442707         0.226777        -0.182937
 O         2.222188        -1.125947         0.035085
 C         2.522970        -0.326782        -1.069508
 C         3.467802         0.802861        -0.628823
 C         3.538337         2.053954        -1.432406
 C         2.437587         3.082467        -0.857521
 O         1.795285         2.445364         0.203079
 C         2.413711         1.216611         0.423761
 H        -0.399495        -0.152383         0.820926
 H        -0.543956         1.196358        -0.386637
 H        -0.532407        -0.560511        -0.897507
 H         2.459912        -0.756234        -2.042419
 H         4.422916         0.599653        -0.089067
 H         4.474496         2.554799        -1.131290
 H         3.625763         2.006734        -2.493024
 H         2.970838         4.005563        -0.476021
 H         1.595359         3.334807        -1.602651
 H         2.614446         1.158489         1.456917
