19
Iteration:  2429
 C        -0.063234         0.048024        -0.206878
 C         1.389082         0.158455        -0.122958
 O         2.176627        -1.092771         0.044005
 C         2.458754        -0.186637        -1.137767
 C         3.386051         0.807066        -0.587721
 C         3.739869         2.103559        -1.285485
 C         2.405765         2.946327        -1.187388
 O         1.962285         2.568797         0.283618
 C         2.285841         1.230868         0.447087
 H        -0.467945         0.105141         0.793615
 H        -0.429024         0.931527        -0.731724
 H        -0.251757        -0.762545        -0.801235
 H         2.422126        -0.740596        -2.004699
 H         4.312978         0.369778        -0.185558
 H         4.524349         2.679516        -0.759209
 H         4.274259         2.301995        -2.227134
 H         2.327658         4.010462        -1.492588
 H         1.692197         2.409668        -1.789297
 H         2.380166         1.231486         1.562563
