19
Iteration:  2826
 C        -0.086861        -0.093784        -0.170211
 C         1.391473         0.035168        -0.152197
 O         2.242362        -1.095568         0.177955
 C         2.551489        -0.341580        -1.062642
 C         3.370775         0.856617        -0.592549
 C         3.440720         2.137453        -1.616364
 C         2.872177         3.195994        -0.625451
 O         1.780563         2.627181        -0.058100
 C         2.169175         1.247529         0.348678
 H        -0.513983         0.396218         0.748964
 H        -0.502184         0.540719        -1.084949
 H        -0.431963        -1.125615        -0.354146
 H         2.712432        -0.874718        -1.980112
 H         4.370023         0.545329        -0.221332
 H         4.383727         2.149077        -2.052613
 H         2.822305         1.855739        -2.407755
 H         3.647261         3.500298         0.201728
 H         2.498191         4.197732        -1.129278
 H         2.367428         1.306589         1.435395
