19
Iteration:  2796charge 0 multiplicity 1
 C        -0.105488        -0.149812        -0.154865
 C         1.375387         0.101204        -0.186139
 O         2.213855        -1.102741         0.117139
 C         2.492375        -0.276423        -1.034790
 C         3.422258         0.872848        -0.527429
 C         3.499094         2.118010        -1.577485
 C         2.844531         3.202613        -0.727770
 O         1.784344         2.593137        -0.026484
 C         2.202333         1.267891         0.353973
 H        -0.442102         0.014128         0.872884
 H        -0.688320         0.582147        -0.828290
 H        -0.245785        -1.154052        -0.478308
 H         2.548414        -0.700866        -1.994820
 H         4.417724         0.590276         0.000279
 H         4.563446         2.199065        -1.893691
 H         2.943796         1.611993        -2.419584
 H         3.566937         3.600442        -0.028167
 H         2.465484         4.034879        -1.267798
 H         2.359454         1.188702         1.463517
