19
Iteration:   598charge 0 multiplicity 1
 C        -0.094308         0.177130        -0.304038
 C         1.341849         0.130527        -0.044554
 O         2.244526        -1.195339         0.000854
 C         2.441380        -0.187228        -1.098336
 C         3.385697         0.823119        -0.575972
 C         3.654478         2.014062        -1.446099
 C         2.392528         2.892493        -1.089135
 O         2.048990         2.657898         0.301172
 C         2.302236         1.266944         0.586243
 H        -0.675388        -0.279580         0.525312
 H        -0.197197         1.268035        -0.272168
 H        -0.289498        -0.254847        -1.285151
 H         2.118899        -0.551416        -2.105957
 H         4.437488         0.414736        -0.439757
 H         4.633586         2.464828        -1.184899
 H         3.715901         1.865682        -2.550341
 H         2.672624         3.935513        -1.204181
 H         1.364344         2.613146        -1.614980
 H         2.674412         1.162275         1.601755
