19
Iteration:  4875charge 0 multiplicity 1
 C        -0.111957         0.060932         0.019640
 C         1.370502         0.158852        -0.150151
 O         2.300216        -1.117846        -0.006494
 C         2.504307        -0.304074        -1.203185
 C         3.409195         0.811141        -0.596323
 C         3.685559         2.127363        -1.445242
 C         2.645193         3.126168        -0.762210
 O         1.673019         2.453574        -0.050687
 C         2.271832         1.251593         0.403040
 H        -0.383983         0.082597         1.196079
 H        -0.448851         1.065041        -0.321607
 H        -0.606133        -0.635021        -0.616612
 H         2.391817        -0.783254        -2.183398
 H         4.234076         0.328089        -0.052131
 H         4.714242         2.493911        -1.161071
 H         3.508833         2.067303        -2.526141
 H         3.382087         3.693261        -0.151145
 H         2.090610         3.741641        -1.399800
 H         2.476598         1.228549         1.557680
