19
Iteration:  3480charge 0 multiplicity 1
 C        -0.174933        -0.099819        -0.261377
 C         1.369265         0.094776        -0.096713
 O         2.184958        -1.142479         0.126670
 C         2.463521        -0.227199        -1.037195
 C         3.457848         0.867712        -0.627596
 C         3.585411         2.049467        -1.541749
 C         2.592868         3.141461        -0.992472
 O         1.965008         2.661954         0.199596
 C         2.263794         1.284399         0.560322
 H        -0.557188        -0.501269         0.639274
 H        -0.687075         0.711829        -0.858687
 H        -0.122278        -0.938423        -1.046195
 H         2.647709        -0.691381        -2.068961
 H         4.356823         0.381423        -0.289242
 H         4.594885         2.487980        -1.575240
 H         3.219974         1.861172        -2.590070
 H         3.173652         4.009165        -0.690100
 H         1.807840         3.445810        -1.701280
 H         2.703724         1.043094         1.561921
