19
Iteration:  2642charge 0 multiplicity 1
 C        -0.080673        -0.117320        -0.246795
 C         1.397950         0.077052        -0.126308
 O         2.203919        -1.048319         0.185747
 C         2.511761        -0.317137        -1.049613
 C         3.367444         0.878667        -0.580299
 C         3.557926         2.058034        -1.540895
 C         2.728613         3.228078        -0.751333
 O         1.821348         2.545045         0.020454
 C         2.230458         1.260134         0.364559
 H        -0.525001         0.104315         0.707143
 H        -0.441577         0.611350        -1.005124
 H        -0.388809        -1.081424        -0.600296
 H         2.231114        -0.898454        -1.963083
 H         4.320414         0.429050        -0.184487
 H         4.553227         2.528354        -1.748347
 H         3.114096         1.914053        -2.641714
 H         3.447219         3.819139        -0.005234
 H         2.319000         3.908223        -1.453009
 H         2.632393         1.351739         1.393816
