19
Iteration:  2955
 C        -0.034116         0.104779        -0.258393
 C         1.436798         0.064203        -0.150308
 O         2.200220        -1.116714         0.120242
 C         2.488200        -0.327991        -1.030694
 C         3.439055         0.850991        -0.591801
 C         3.517394         2.077672        -1.486740
 C         2.566957         3.116946        -0.908750
 O         1.800322         2.567180         0.139149
 C         2.376515         1.220772         0.441264
 H        -0.460921        -0.506079         0.549837
 H        -0.521435         1.047036        -0.208870
 H        -0.290265        -0.471297        -1.108761
 H         2.215900        -0.615213        -2.043253
 H         4.323133         0.632434        -0.098706
 H         4.536439         2.475816        -1.517105
 H         3.317266         1.581192        -2.549309
 H         3.116132         3.979000        -0.502554
 H         2.017823         3.646334        -1.742703
 H         2.479076         1.176394         1.529053
