19
Iteration:  3249charge 0 multiplicity 1
 C        -0.076323        -0.042957        -0.241159
 C         1.359254         0.085830        -0.178070
 O         2.156031        -1.027072         0.053418
 C         2.566715        -0.305607        -1.089917
 C         3.428175         0.842951        -0.514059
 C         3.596222         2.085606        -1.507295
 C         2.487481         3.054329        -1.028813
 O         1.996561         2.654861         0.289750
 C         2.255971         1.257785         0.470942
 H        -0.421349        -0.172305         0.840404
 H        -0.724367         0.747945        -0.773200
 H        -0.438234        -0.907767        -0.752348
 H         2.511775        -0.926313        -1.957103
 H         4.479800         0.628040        -0.244798
 H         4.581551         2.443419        -1.369165
 H         3.502751         1.760505        -2.532620
 H         2.810898         4.135270        -0.931304
 H         1.507014         2.945405        -1.601634
 H         2.574905         1.019085         1.526286
