19
Iteration:  3985charge 0 multiplicity 1
 C        -0.074958        -0.031357        -0.029341
 C         1.382028         0.097105        -0.140156
 O         2.163633        -1.137479        -0.029096
 C         2.397785        -0.260365        -1.157478
 C         3.461950         0.851388        -0.514506
 C         3.725915         2.172428        -1.302085
 C         2.463357         3.009970        -1.134523
 O         1.971069         2.668343         0.155014
 C         2.284892         1.236166         0.426714
 H        -0.445174        -0.790228         0.680411
 H        -0.696760         0.934659         0.211033
 H        -0.266105        -0.392248        -1.097809
 H         2.368505        -0.672051        -2.158498
 H         4.323548         0.323217        -0.065452
 H         4.631101         2.597409        -0.948749
 H         3.852532         1.961636        -2.369684
 H         2.586584         4.088723        -1.040881
 H         1.604785         2.818660        -1.895990
 H         2.430007         1.181400         1.514593
