19
Iteration:  1863
 C        -0.024346         0.084655        -0.189238
 C         1.404131         0.153350        -0.063572
 O         2.153014        -1.071339        -0.062178
 C         2.424117        -0.205163        -1.126996
 C         3.475020         0.848348        -0.555736
 C         3.737195         2.211048        -1.248228
 C         2.395061         2.825853        -1.178390
 O         1.890889         2.529835         0.173205
 C         2.298528         1.228348         0.529157
 H        -0.500339         0.070239         0.802452
 H        -0.430941         1.047429        -0.547979
 H        -0.315482        -0.666350        -0.800159
 H         2.165957        -0.660210        -2.033604
 H         4.404852         0.360616        -0.218419
 H         4.493130         2.753496        -0.610948
 H         4.268389         1.909939        -2.097583
 H         2.622635         3.899135        -1.315577
 H         1.775089         2.449439        -1.937938
 H         2.527919         1.188891         1.606150
