19
Iteration:   304charge 0 multiplicity 1
 C        -0.022690         0.319600        -0.238874
 C         1.417242         0.150113        -0.008119
 O         2.199063        -1.076844        -0.101253
 C         2.451876        -0.119139        -1.087493
 C         3.373740         0.825525        -0.533880
 C         3.635091         2.020810        -1.458771
 C         2.314971         2.814937        -1.109579
 O         2.012384         2.498461         0.310104
 C         2.375834         1.178486         0.502573
 H        -0.590454         0.438512         0.722473
 H        -0.259759         1.167035        -0.897492
 H        -0.320157        -0.609854        -0.735383
 H         2.103232        -0.375300        -2.087522
 H         4.319528         0.383784        -0.067096
 H         4.446689         2.411085        -0.850981
 H         3.923820         1.546844        -2.456752
 H         2.584134         3.863695        -0.998919
 H         1.474724         2.522895        -1.754447
 H         2.619936         1.066309         1.624927
