19
Iteration:   804charge 0 multiplicity 1
 C        -0.094135         0.106780        -0.210255
 C         1.441595         0.153284        -0.081094
 O         2.173388        -1.110449         0.048319
 C         2.400272        -0.154241        -1.110235
 C         3.443297         0.799519        -0.599949
 C         3.749229         2.072567        -1.391079
 C         2.446045         2.929955        -1.124653
 O         1.924377         2.575328         0.195203
 C         2.290767         1.240172         0.573641
 H        -0.512041        -0.652727         0.570492
 H        -0.504446         1.097942         0.097911
 H        -0.448060        -0.214089        -1.237431
 H         2.107279        -0.576323        -2.055300
 H         4.354324         0.298483        -0.328772
 H         4.579989         2.622283        -0.903153
 H         3.922686         1.907645        -2.503610
 H         2.663639         3.974043        -1.210506
 H         1.874182         2.603560        -1.972484
 H         2.507606         1.171470         1.604273
