19
Iteration:  1554charge 0 multiplicity 1
 C        -0.089845        -0.040962        -0.169567
 C         1.398871         0.091484        -0.053610
 O         2.235581        -1.135666         0.088785
 C         2.415686        -0.270586        -1.079244
 C         3.348888         0.768994        -0.598482
 C         3.722480         2.141139        -1.390000
 C         2.614536         3.131006        -1.073608
 O         1.838702         2.564006         0.063002
 C         2.301144         1.313894         0.517110
 H        -0.950142        -0.248285         0.469818
 H        -0.377510         0.990738        -0.434316
 H        -0.376689        -0.727827        -0.987562
 H         2.413521        -0.702936        -2.111150
 H         4.190020         0.309619        -0.106226
 H         4.634239         2.547486        -1.012505
 H         3.704982         1.980312        -2.395757
 H         2.856361         4.159625        -0.729528
 H         1.892253         3.328711        -1.944703
 H         2.517484         1.330530         1.622910
