19
Iteration:  3957charge 0 multiplicity 1
 C        -0.175398        -0.142767        -0.030731
 C         1.306491         0.061075        -0.244348
 O         2.198400        -1.040288         0.023055
 C         2.491951        -0.204912        -1.119140
 C         3.427298         0.880253        -0.519353
 C         3.704818         2.047412        -1.488581
 C         2.602549         3.131765        -1.078579
 O         1.909688         2.628953         0.196657
 C         2.254862         1.242719         0.465599
 H        -0.380225        -0.737650         0.932297
 H        -0.675121         0.784352         0.026971
 H        -0.512812        -0.616007        -0.912306
 H         2.631283        -0.646499        -2.115272
 H         4.374306         0.445905        -0.183182
 H         4.749793         2.375197        -1.082672
 H         3.702029         1.757739        -2.592323
 H         3.110852         4.062233        -0.642279
 H         1.801013         3.328552        -1.712098
 H         2.348710         1.092334         1.572364
