19
Iteration:  2750
 C        -0.169678        -0.052817        -0.218885
 C         1.416279         0.102069        -0.034744
 O         2.244728        -1.129949         0.118055
 C         2.508057        -0.281120        -1.065164
 C         3.444075         0.864481        -0.575954
 C         3.631093         2.066149        -1.536930
 C         2.679141         3.226892        -0.839326
 O         1.812427         2.478010        -0.009930
 C         2.210259         1.261254         0.463197
 H        -0.689602        -0.436727         0.653332
 H        -0.537119         1.049542        -0.149586
 H        -0.497196        -0.421649        -1.191442
 H         2.436660        -0.752364        -2.053075
 H         4.437877         0.474693        -0.227062
 H         4.594205         2.499178        -1.596990
 H         3.243468         1.996704        -2.540282
 H         3.190002         3.965482        -0.265262
 H         2.060674         3.803890        -1.565782
 H         2.448457         1.444619         1.528373
