19
Iteration:  2554
 C        -0.105350        -0.059445        -0.265723
 C         1.418515         0.080387        -0.078287
 O         2.216456        -1.034899         0.176250
 C         2.525185        -0.403484        -1.045108
 C         3.445764         0.846163        -0.597599
 C         3.461120         2.107418        -1.577434
 C         2.832287         3.219650        -0.774975
 O         1.757850         2.546494         0.013669
 C         2.209178         1.317718         0.443417
 H        -0.676477        -0.489646         0.485649
 H        -0.444304         0.886484        -0.617333
 H        -0.234773        -0.790145        -1.073925
 H         2.517414        -1.140057        -1.919473
 H         4.443787         0.529437        -0.235015
 H         4.466928         2.398391        -1.816446
 H         2.861393         1.774148        -2.494823
 H         3.419032         3.752088         0.004462
 H         2.393764         3.888159        -1.477085
 H         2.451743         1.154101         1.485323
