19
Iteration:  3991charge 0 multiplicity 1
 C        -0.015432        -0.005846        -0.043354
 C         1.435595         0.113547        -0.106247
 O         2.134963        -1.096673        -0.027365
 C         2.381047        -0.233142        -1.158034
 C         3.453349         0.846919        -0.511673
 C         3.711533         2.152937        -1.320350
 C         2.410512         2.996822        -1.171548
 O         1.963000         2.638212         0.178583
 C         2.306760         1.202185         0.448882
 H        -0.494550        -0.772389         0.581593
 H        -0.473789         0.903512         0.071622
 H        -0.319007        -0.308956        -1.044463
 H         2.272994        -0.629966        -2.232214
 H         4.351573         0.281192        -0.243342
 H         4.604521         2.639262        -0.786373
 H         4.187330         1.854174        -2.298481
 H         2.394180         4.104179        -1.080244
 H         1.740077         2.786613        -1.971234
 H         2.203682         1.046930         1.560983
