19
Iteration:  4403charge 0 multiplicity 1
 C        -0.067521         0.048067        -0.286290
 C         1.422921         0.083733        -0.148555
 O         2.168128        -1.189973        -0.109783
 C         2.604022        -0.206228        -1.060606
 C         3.474281         0.834692        -0.522749
 C         3.472640         2.007655        -1.516402
 C         2.487884         3.110544        -0.906942
 O         1.982741         2.608750         0.299143
 C         2.225790         1.248943         0.544381
 H        -0.368251         0.090672         0.842798
 H        -0.348862         1.026715        -0.650675
 H        -0.575358        -0.773262        -0.826542
 H         2.712269        -0.564625        -2.041223
 H         4.433087         0.822025        -0.048994
 H         4.502498         2.356422        -1.558294
 H         3.168593         1.663416        -2.473494
 H         2.888539         4.132966        -0.876275
 H         1.639391         3.221633        -1.594666
 H         2.330139         1.233948         1.594890
