19
Iteration:   319
 C        -0.087355         0.268804        -0.202465
 C         1.451361         0.198667        -0.144341
 O         2.074392        -1.148315        -0.062162
 C         2.465146        -0.248770        -1.122025
 C         3.543961         0.752607        -0.549253
 C         3.579968         2.083237        -1.329973
 C         2.288665         2.848503        -1.105683
 O         2.028330         2.583482         0.286997
 C         2.441062         1.214787         0.553254
 H        -0.489904         0.351657         0.817347
 H        -0.328222         1.164708        -0.808507
 H        -0.518194        -0.615790        -0.704939
 H         2.439279        -0.585934        -2.248516
 H         4.478145         0.373348        -0.288505
 H         4.440102         2.748109        -1.026131
 H         3.778175         2.029495        -2.377624
 H         2.416640         3.940153        -1.361937
 H         1.475230         2.542797        -1.775678
 H         2.706816         1.115247         1.618512
