19
Iteration:  4780
 C        -0.134521        -0.145248        -0.220598
 C         1.324227         0.072061        -0.261346
 O         2.271416        -1.129256         0.230454
 C         2.499395        -0.433061        -1.044270
 C         3.378397         0.832629        -0.721028
 C         3.425487         2.157341        -1.548928
 C         2.899015         3.289041        -0.677789
 O         1.862807         2.662682         0.141262
 C         2.218608         1.270191         0.331577
 H        -0.524112        -0.454965         0.677297
 H        -0.762258         0.762045        -0.602935
 H        -0.365710        -0.900953        -0.975963
 H         2.332698        -1.003893        -1.999621
 H         4.390458         0.731069        -0.258193
 H         4.456937         2.341479        -1.845730
 H         2.739726         2.065445        -2.435246
 H         3.525682         3.774511         0.001621
 H         2.455666         3.969697        -1.492163
 H         2.509297         1.111933         1.325925
