19
Iteration:  1492
 C        -0.087049         0.219421        -0.262658
 C         1.451323         0.150506        -0.290206
 O         2.115460        -1.147602         0.055428
 C         2.646688        -0.267084        -0.998120
 C         3.507136         0.829130        -0.416029
 C         3.558056         2.051581        -1.420845
 C         2.257712         2.885921        -1.146584
 O         1.989394         2.585495         0.311177
 C         2.307527         1.244642         0.451412
 H        -0.380908         0.399960         0.758003
 H        -0.264448         1.083104        -0.890992
 H        -0.446030        -0.633955        -0.743415
 H         2.690000        -0.453388        -2.149718
 H         4.523887         0.652212         0.061804
 H         4.511395         2.633250        -1.178774
 H         3.835680         1.776047        -2.561856
 H         2.496179         3.973254        -1.340573
 H         1.340946         2.712352        -1.636614
 H         2.551045         0.921964         1.450996
