19
Iteration:   733
 C        -0.082050         0.162916        -0.176291
 C         1.494533         0.214056        -0.087546
 O         2.130543        -1.064087        -0.118166
 C         2.467057        -0.174122        -1.069935
 C         3.457821         0.817046        -0.484347
 C         3.674951         1.982251        -1.398428
 C         2.391926         2.847970        -1.140775
 O         1.933316         2.557537         0.238636
 C         2.326506         1.249307         0.570874
 H        -0.581477        -0.247116         0.662616
 H        -0.427005         1.167335        -0.283108
 H        -0.310623        -0.441354        -1.025833
 H         2.417304        -0.528852        -2.143143
 H         4.494452         0.435831        -0.230991
 H         4.582037         2.469901        -1.013076
 H         3.775062         1.682315        -2.425983
 H         2.571923         3.989807        -1.238615
 H         1.472508         2.696295        -1.862677
 H         2.449581         1.133856         1.702593
