19
Iteration:  4639charge 0 multiplicity 1
 C        -0.112821        -0.057967        -0.192283
 C         1.348491         0.059527        -0.120756
 O         2.178441        -1.209786        -0.047393
 C         2.493131        -0.197501        -1.082629
 C         3.480738         0.860413        -0.498154
 C         3.538847         2.094687        -1.511814
 C         2.569994         3.139133        -1.011604
 O         1.977159         2.671636         0.241380
 C         2.290647         1.207550         0.525951
 H        -0.651498        -0.045121         0.695971
 H        -0.563052         0.868457        -0.772129
 H        -0.353728        -0.940688        -0.792201
 H         2.379857        -0.592016        -2.080976
 H         4.404403         0.535678         0.011197
 H         4.517180         2.421623        -1.461180
 H         3.185600         1.834780        -2.476534
 H         3.146215         3.959224        -0.641095
 H         1.814078         3.401043        -1.819128
 H         2.558860         1.340176         1.560164
