19
Iteration:  2994charge 0 multiplicity 1
 C        -0.073809         0.065107        -0.224963
 C         1.438775         0.084158        -0.084738
 O         2.183561        -1.136398         0.083984
 C         2.519456        -0.238209        -1.112979
 C         3.454660         0.955627        -0.548805
 C         3.582800         2.031337        -1.512333
 C         2.561587         3.119725        -0.922356
 O         1.817743         2.512542         0.132931
 C         2.267979         1.203009         0.454829
 H        -0.418449         0.021451         0.837867
 H        -0.403572         0.993383        -0.741195
 H        -0.562915        -0.876178        -0.723439
 H         2.213836        -0.738266        -2.054515
 H         4.472939         0.531172        -0.274441
 H         4.589906         2.481010        -1.346162
 H         3.613331         1.716973        -2.489416
 H         3.181531         3.964096        -0.466081
 H         1.811071         3.418882        -1.640433
 H         2.692322         1.261773         1.473602
