19
Iteration:  1514charge 0 multiplicity 1
 C        -0.027672         0.164110        -0.232816
 C         1.478230         0.156995        -0.182755
 O         2.117094        -1.065057         0.022665
 C         2.553603        -0.316405        -1.105308
 C         3.481194         0.806353        -0.430185
 C         3.589886         2.090025        -1.410263
 C         2.408797         2.952859        -1.040773
 O         1.858675         2.548696         0.169384
 C         2.306002         1.253946         0.550842
 H        -0.362853         0.213669         0.789656
 H        -0.392909         1.012566        -0.831913
 H        -0.258050        -0.757231        -0.710148
 H         2.807933        -0.948613        -2.031287
 H         4.508623         0.413621        -0.152138
 H         4.646118         2.557678        -1.444256
 H         3.467711         1.789213        -2.576305
 H         2.675452         4.035822        -1.092239
 H         1.650440         2.856688        -1.808694
 H         2.392985         1.239529         1.635167
