19
Iteration:  4333
 C        -0.070259         0.079491        -0.196727
 C         1.442385        -0.020837        -0.089320
 O         2.196938        -1.229506         0.039717
 C         2.377648        -0.197981        -1.120029
 C         3.398533         0.968249        -0.559524
 C         3.716704         2.199195        -1.393480
 C         2.463252         3.064023        -1.003393
 O         1.913177         2.497083         0.194492
 C         2.318773         1.243456         0.416069
 H        -0.460130        -0.267781         0.705081
 H        -0.337813         1.241179        -0.373317
 H        -0.449321        -0.455816        -1.100138
 H         2.192990        -0.683689        -2.126193
 H         4.260724         0.370755        -0.196101
 H         4.698844         2.621144        -0.988243
 H         3.798193         2.028689        -2.537649
 H         2.579767         4.138727        -0.843966
 H         1.800594         3.130394        -1.826652
 H         2.623144         1.005532         1.529584
