19
Iteration:  3815charge 0 multiplicity 1
 C        -0.039364        -0.133267        -0.341814
 C         1.436537         0.086185        -0.141947
 O         2.222534        -1.053620         0.234915
 C         2.446586        -0.307419        -1.037745
 C         3.356474         0.802315        -0.644616
 C         3.436991         1.979327        -1.603745
 C         2.796593         3.233043        -0.790858
 O         1.799542         2.674233         0.207249
 C         2.309823         1.317791         0.358346
 H        -0.482900        -0.498760         0.656831
 H        -0.778800         0.582544        -0.614359
 H        -0.219648        -0.881329        -1.053013
 H         2.262605        -0.865894        -1.908581
 H         4.404163         0.591593        -0.371622
 H         4.454681         2.081307        -2.108144
 H         2.724703         1.851949        -2.416322
 H         3.628038         3.779563        -0.259141
 H         2.322328         3.956407        -1.389949
 H         2.638160         1.189326         1.455972
