19
Iteration:   556charge 0 multiplicity 1
 C         0.016611         0.217384        -0.136560
 C         1.428526         0.189324        -0.298769
 O         1.971884        -1.092345         0.015468
 C         2.560360        -0.269936        -1.027922
 C         3.533506         0.755362        -0.636737
 C         3.647544         2.090738        -1.388905
 C         2.291434         2.908562        -1.100129
 O         1.963200         2.558433         0.277739
 C         2.368795         1.223891         0.483678
 H        -0.104163        -0.392462         0.726445
 H        -0.238338         1.183620         0.064842
 H        -0.750080        -0.099934        -0.775850
 H         2.620523        -0.789201        -2.020685
 H         4.496811         0.379137        -0.190830
 H         4.405099         2.716436        -0.886073
 H         4.060105         2.051386        -2.384966
 H         2.597270         3.930457        -1.034754
 H         1.604976         2.661561        -1.857500
 H         2.413007         0.961884         1.559216
