19
Iteration:   921
 C        -0.038957         0.142022        -0.393819
 C         1.464059         0.192037        -0.050315
 O         2.079199        -1.110473         0.056061
 C         2.480606        -0.161092        -1.077434
 C         3.552401         0.812128        -0.566994
 C         3.568314         2.051089        -1.469750
 C         2.353241         2.882151        -1.093848
 O         1.975282         2.587187         0.292806
 C         2.399087         1.210183         0.607320
 H        -0.684305         0.348028         0.420991
 H        -0.393049         0.890252        -1.125567
 H        -0.204024        -0.885767        -0.676382
 H         2.090852        -0.536752        -2.020297
 H         4.530188         0.335723        -0.370806
 H         4.380453         2.570614        -1.119090
 H         3.578606         1.866338        -2.544966
 H         2.684175         3.952687        -1.034839
 H         1.403789         2.601400        -1.630727
 H         2.633869         1.134484         1.697055
