19
Iteration:   737
 C        -0.085869         0.176328        -0.153327
 C         1.483425         0.172982        -0.115493
 O         2.139709        -1.078528        -0.111957
 C         2.453971        -0.206707        -1.097366
 C         3.466348         0.826561        -0.480807
 C         3.667678         1.997749        -1.370028
 C         2.395253         2.857388        -1.144229
 O         1.961070         2.597445         0.224693
 C         2.299005         1.242011         0.557211
 H        -0.499898        -0.377022         0.743802
 H        -0.489003         1.252872        -0.264233
 H        -0.304028        -0.395163        -1.102559
 H         2.455196        -0.496202        -2.119703
 H         4.399450         0.490045        -0.023124
 H         4.594364         2.453138        -1.041578
 H         3.781614         1.637854        -2.457870
 H         2.463484         3.960327        -1.158412
 H         1.522603         2.609377        -1.726365
 H         2.540853         1.213120         1.624179
