19
Iteration:  3240
 C        -0.194002         0.000777        -0.225000
 C         1.434891         0.151848        -0.261169
 O         2.176653        -1.084819         0.114679
 C         2.577686        -0.247120        -1.055676
 C         3.467186         0.873552        -0.556187
 C         3.540782         2.131170        -1.473339
 C         2.491257         3.030664        -1.071431
 O         1.978667         2.601097         0.269279
 C         2.310992         1.152224         0.488517
 H        -0.484302         0.014975         0.849071
 H        -0.628258         0.976564        -0.692275
 H        -0.462568        -0.939504        -0.673967
 H         2.553039        -0.762476        -2.002549
 H         4.314195         0.509246        -0.041217
 H         4.461042         2.621802        -1.260005
 H         3.472525         1.737539        -2.533439
 H         2.698169         4.092901        -0.904708
 H         1.723489         2.961343        -1.927692
 H         2.559525         0.858465         1.529294
