19
Iteration:  4943charge 0 multiplicity 1
 C        -0.035820        -0.043818        -0.149536
 C         1.440545         0.122086        -0.114015
 O         2.173790        -1.083436        -0.052552
 C         2.376919        -0.135130        -1.179271
 C         3.467479         0.818144        -0.498773
 C         3.624274         2.042041        -1.404476
 C         2.485968         3.054247        -1.042276
 O         1.944494         2.587945         0.212571
 C         2.307047         1.238090         0.545285
 H        -0.459027        -0.578355         0.705351
 H        -0.509954         1.018204        -0.290414
 H        -0.303607        -0.604109        -1.093719
 H         2.243495        -0.280560        -2.307857
 H         4.386783         0.227715        -0.246830
 H         4.570353         2.535041        -1.254473
 H         3.475822         1.584620        -2.451442
 H         2.848473         4.025946        -0.749286
 H         1.706741         3.156742        -1.794474
 H         2.387355         1.142101         1.671746
