19
Iteration:  2937
 C        -0.065103         0.014929        -0.225386
 C         1.427248         0.108535        -0.126865
 O         2.164119        -1.099723         0.071895
 C         2.586277        -0.254253        -1.064563
 C         3.451643         0.871257        -0.553676
 C         3.504601         2.017322        -1.600828
 C         2.638878         3.144676        -0.880943
 O         1.828486         2.493816         0.149362
 C         2.206978         1.266280         0.509102
 H        -0.507881        -0.423944         0.692785
 H        -0.439495         1.161180        -0.060851
 H        -0.344052        -0.221045        -1.267453
 H         2.872202        -0.928198        -1.856510
 H         4.476456         0.402323        -0.245007
 H         4.559870         2.250875        -1.651873
 H         3.163147         1.734058        -2.536654
 H         3.110596         4.128300        -0.564177
 H         1.876678         3.609947        -1.670190
 H         2.571614         1.395606         1.569246
