19
Iteration:   275charge 0 multiplicity 1
 C        -0.123719         0.235771        -0.207028
 C         1.425226         0.150284        -0.049998
 O         2.096783        -1.157829        -0.063188
 C         2.486783        -0.181365        -1.069697
 C         3.527031         0.717357        -0.571196
 C         3.636004         2.128457        -1.412605
 C         2.380858         2.896054        -1.077831
 O         1.933066         2.566200         0.270577
 C         2.446059         1.232349         0.510568
 H        -0.582419         0.148084         0.783233
 H        -0.374011         1.175632        -0.725455
 H        -0.427191        -0.619535        -0.826109
 H         2.135317        -0.473618        -2.147410
 H         4.406460         0.240060        -0.284973
 H         4.623609         2.538748        -1.099886
 H         3.749621         1.846954        -2.436501
 H         2.641055         3.997262        -1.159716
 H         1.615829         2.693048        -1.848484
 H         2.629377         1.214760         1.595784
