19
Iteration:  4738
 C        -0.039973         0.040249        -0.352958
 C         1.452893         0.170762        -0.128300
 O         2.244110        -1.104647         0.063474
 C         2.538093        -0.278021        -1.006127
 C         3.424815         0.883163        -0.520347
 C         3.255455         1.961413        -1.599841
 C         2.798089         3.099742        -0.749369
 O         1.808160         2.537847         0.126655
 C         2.353376         1.269514         0.500724
 H        -0.583846        -0.245989         0.545414
 H        -0.632438         1.060688        -0.611016
 H        -0.288137        -0.729666        -1.185286
 H         2.570398        -0.592514        -2.122711
 H         4.461560         0.647922        -0.222045
 H         4.055662         2.222332        -2.228057
 H         2.356439         1.734772        -2.214432
 H         3.573878         3.709487        -0.275382
 H         2.078161         3.783158        -1.399616
 H         2.416343         1.159426         1.580568
