19
Iteration:  3488
 C        -0.116554        -0.092759        -0.273212
 C         1.354966         0.121806        -0.099689
 O         2.188770        -1.122613         0.086951
 C         2.483592        -0.218944        -0.942405
 C         3.427747         0.871054        -0.578235
 C         3.513216         2.063225        -1.563603
 C         2.621376         3.147968        -0.989307
 O         1.968805         2.583770         0.193589
 C         2.295737         1.272183         0.502495
 H        -0.698570        -0.368212         0.615065
 H        -0.684055         0.666922        -0.867080
 H        -0.065969        -0.926021        -0.891766
 H         2.382218        -0.611965        -1.990748
 H         4.472073         0.422069        -0.450640
 H         4.631520         2.533879        -1.647549
 H         3.351401         1.678105        -2.593984
 H         3.216667         4.051026        -0.710019
 H         1.833697         3.578305        -1.599175
 H         2.312524         1.070673         1.613680
