19
Iteration:  4714charge 0 multiplicity 1
 C         0.038240         0.188664        -0.321080
 C         1.480757        -0.005610        -0.098008
 O         2.187121        -1.196933         0.108529
 C         2.584803        -0.352542        -1.037455
 C         3.448576         0.870128        -0.580581
 C         3.281871         1.992613        -1.599568
 C         2.679953         3.212274        -0.827140
 O         1.773395         2.568295         0.204462
 C         2.312676         1.215939         0.462601
 H        -0.632387         0.156176         0.511366
 H        -0.079576         1.313609        -0.748532
 H        -0.288203        -0.505351        -1.126321
 H         2.557172        -0.674625        -2.071606
 H         4.511639         0.755278        -0.241676
 H         4.261596         2.394192        -1.877181
 H         2.658478         1.752280        -2.481351
 H         3.469477         3.751142        -0.348736
 H         2.016144         3.958221        -1.481049
 H         2.464323         1.132394         1.510252
