19
Iteration:  4020
 C        -0.130091         0.235200        -0.104716
 C         1.434400         0.191029        -0.058462
 O         2.207113        -1.102800        -0.107341
 C         2.438735        -0.136372        -1.132377
 C         3.549310         0.819836        -0.526712
 C         3.699829         2.164975        -1.258693
 C         2.275590         2.701022        -1.114097
 O         1.875229         2.521898         0.178362
 C         2.471932         1.219780         0.475639
 H        -0.724515        -0.401223         0.700179
 H        -0.588058         1.283551        -0.308955
 H        -0.391647        -0.307606        -0.999103
 H         2.388517        -0.472140        -2.116771
 H         4.467855         0.280155        -0.242860
 H         4.438900         2.850438        -0.763423
 H         3.923610         2.062175        -2.340243
 H         2.180512         3.808230        -1.342498
 H         1.738858         2.131843        -1.982030
 H         2.609552         1.158324         1.523657
