19
Iteration:  4220
 C        -0.068279         0.219166        -0.234846
 C         1.450799         0.073281        -0.081254
 O         2.176274        -1.169362        -0.005831
 C         2.493787        -0.217066        -1.106416
 C         3.512915         0.847011        -0.589249
 C         3.687396         2.171546        -1.396386
 C         2.369388         3.021432        -0.955686
 O         1.764796         2.431769         0.190771
 C         2.430178         1.195528         0.476076
 H        -0.632203         0.089801         0.742566
 H        -0.249189         1.227372        -0.403024
 H        -0.569960        -0.284713        -1.099543
 H         2.302151        -0.758803        -2.020654
 H         4.452433         0.494700        -0.159646
 H         4.706677         2.469289        -1.182255
 H         3.627933         1.994159        -2.485618
 H         2.568651         4.085525        -0.791167
 H         1.697836         3.040090        -1.801515
 H         2.755426         1.148109         1.526513
