19
Iteration:  1506charge 0 multiplicity 1
 C         0.010562         0.194704        -0.276140
 C         1.483183         0.166710        -0.199318
 O         2.096354        -1.086599         0.000934
 C         2.623539        -0.303922        -1.043143
 C         3.502167         0.864886        -0.494531
 C         3.556032         2.017066        -1.410990
 C         2.363758         2.916096        -1.070077
 O         1.900743         2.594230         0.228799
 C         2.300102         1.209988         0.518792
 H        -0.385053         0.267858         0.765252
 H        -0.559832         1.037992        -0.681119
 H        -0.480193        -0.771987        -0.513707
 H         2.697018        -0.894503        -1.923882
 H         4.469181         0.534504        -0.061785
 H         4.413042         2.637538        -1.149678
 H         3.514814         1.705336        -2.436678
 H         2.576619         3.961551        -1.014603
 H         1.694826         2.810945        -1.926478
 H         2.269006         1.247608         1.601739
