19
Iteration:   553charge 0 multiplicity 1
 C         0.012632         0.228988        -0.127463
 C         1.403389         0.196383        -0.297958
 O         1.991596        -1.123462         0.010890
 C         2.559393        -0.286537        -1.067516
 C         3.540185         0.727037        -0.602918
 C         3.642101         2.097529        -1.383677
 C         2.309837         2.920676        -1.086989
 O         1.952082         2.571530         0.283592
 C         2.373579         1.253150         0.475607
 H        -0.107148        -0.403087         0.800565
 H        -0.209707         1.316348         0.086978
 H        -0.765883        -0.176754        -0.816193
 H         2.585110        -0.767462        -2.055664
 H         4.549201         0.451273        -0.147627
 H         4.408273         2.751925        -0.936947
 H         4.106145         2.012609        -2.425856
 H         2.558464         3.992787        -1.128005
 H         1.534048         2.507765        -1.887552
 H         2.377723         0.942545         1.517946
