19
Iteration:  3925
 C        -0.055355        -0.083004        -0.163106
 C         1.390228         0.136602        -0.173472
 O         2.178310        -1.115860         0.077698
 C         2.441530        -0.295367        -1.066482
 C         3.388864         0.827720        -0.581168
 C         3.574857         2.021639        -1.507691
 C         2.647566         3.223793        -0.910094
 O         1.805053         2.587049         0.128630
 C         2.348404         1.287875         0.487648
 H        -0.445655        -0.373439         0.839541
 H        -0.522255         0.722720        -0.619463
 H        -0.177633        -0.923995        -0.808820
 H         2.326916        -0.685495        -2.085914
 H         4.400629         0.527121        -0.312646
 H         4.685089         2.280618        -1.476556
 H         3.374193         1.903760        -2.595374
 H         3.339672         4.062955        -0.581028
 H         1.983130         3.691289        -1.626210
 H         2.693666         1.269504         1.569652
