19
Iteration:  1873charge 0 multiplicity 1
 C        -0.025229         0.136976        -0.172500
 C         1.471825         0.188822        -0.154571
 O         2.141512        -1.067536         0.029424
 C         2.435127        -0.194619        -1.135295
 C         3.437814         0.792631        -0.591934
 C         3.807278         2.141374        -1.191389
 C         2.376790         2.821573        -1.178817
 O         1.826296         2.495574         0.164748
 C         2.340837         1.230721         0.469519
 H        -0.246328        -0.139238         0.851249
 H        -0.393597         1.104500        -0.525566
 H        -0.370995        -0.598023        -0.740740
 H         2.169163        -0.260232        -2.129668
 H         4.322441         0.347669        -0.175684
 H         4.454589         2.791093        -0.483369
 H         4.183683         2.314087        -2.259519
 H         2.273439         3.947247        -1.152796
 H         1.663095         2.498459        -1.964793
 H         2.558072         1.175660         1.561101
