19
Iteration:  1831
 C        -0.100670        -0.009221        -0.248716
 C         1.397336         0.137919        -0.176911
 O         2.158970        -1.121686        -0.108839
 C         2.490971        -0.193161        -1.037298
 C         3.494804         0.922420        -0.424674
 C         3.667272         2.036944        -1.399935
 C         2.434565         2.872065        -1.140625
 O         1.990913         2.658687         0.253716
 C         2.273376         1.305564         0.554275
 H        -0.450694        -0.108517         0.834002
 H        -0.562451         0.915202        -0.722683
 H        -0.608477        -0.897753        -0.625869
 H         2.334719        -0.476645        -2.060436
 H         4.371486         0.404581         0.038631
 H         4.503229         2.671124        -1.042814
 H         3.765843         1.616438        -2.329036
 H         2.579172         3.989923        -1.187237
 H         1.605799         2.665169        -1.746553
 H         2.410610         1.207668         1.638239
