19
Iteration:  4348charge 0 multiplicity 1
 C         0.001251         0.148547        -0.227088
 C         1.433989        -0.019548        -0.066068
 O         2.193726        -1.188607         0.104137
 C         2.435892        -0.262277        -1.185725
 C         3.417014         0.816752        -0.665665
 C         3.645856         2.258384        -1.382381
 C         2.499927         3.130688        -0.972331
 O         1.821696         2.518560         0.181762
 C         2.308626         1.119502         0.484945
 H        -0.739897        -0.136351         0.651172
 H        -0.060996         1.299922        -0.341927
 H        -0.390812        -0.361817        -1.091002
 H         2.356904        -0.812673        -2.120755
 H         4.412709         0.581822        -0.263232
 H         4.635248         2.714872        -1.194019
 H         3.633833         2.045145        -2.426776
 H         2.923105         4.135021        -0.666296
 H         1.678773         3.217554        -1.809274
 H         2.623009         1.166070         1.493233
