19
Iteration:  2134
 C        -0.079166        -0.066529        -0.198221
 C         1.403190         0.147722        -0.133963
 O         2.134671        -1.060932        -0.048216
 C         2.461998        -0.103248        -1.114621
 C         3.477568         0.770314        -0.479997
 C         3.710005         2.150372        -1.337539
 C         2.357318         2.821682        -1.176994
 O         2.094867         2.620096         0.223278
 C         2.235176         1.315933         0.571425
 H        -0.482399        -0.713241         0.699758
 H        -0.569549         1.029096        -0.313374
 H        -0.513119        -0.574063        -1.052871
 H         2.443626        -0.467840        -2.170728
 H         4.393619         0.326852        -0.155393
 H         4.518724         2.720908        -0.993978
 H         3.868654         1.827424        -2.392816
 H         2.367605         3.957198        -1.178529
 H         1.528220         2.458768        -1.858826
 H         2.220551         1.502650         1.686484
