19
Iteration:  2121charge 0 multiplicity 1
 C        -0.127527        -0.022751        -0.246631
 C         1.378004         0.172785        -0.168644
 O         2.124451        -1.044038         0.024436
 C         2.481964        -0.250549        -1.144233
 C         3.527184         0.852732        -0.587209
 C         3.734812         2.114988        -1.317677
 C         2.354913         2.858991        -1.122911
 O         2.019106         2.711157         0.254944
 C         2.301068         1.242710         0.577357
 H        -0.366483        -0.518800         0.739691
 H        -0.782657         0.885147        -0.142996
 H        -0.255419        -0.705085        -1.085666
 H         2.271212        -0.659906        -2.120750
 H         4.392207         0.343732        -0.226179
 H         4.473728         2.717289        -0.854281
 H         3.966687         2.014844        -2.400907
 H         2.373941         3.885912        -1.501740
 H         1.588573         2.274701        -1.766381
 H         2.474062         0.918727         1.641786
