19
Iteration:   697charge 0 multiplicity 1
 C        -0.035534         0.240241        -0.249479
 C         1.394362         0.155659        -0.001494
 O         2.094734        -1.134528        -0.027834
 C         2.484211        -0.285125        -1.076730
 C         3.443209         0.860954        -0.589558
 C         3.665126         2.117601        -1.393430
 C         2.353288         2.926055        -1.105898
 O         1.956447         2.515757         0.250178
 C         2.425468         1.206964         0.525750
 H        -0.678751         0.467218         0.650952
 H        -0.148140         0.960743        -1.038373
 H        -0.344117        -0.676464        -0.774090
 H         2.296285        -0.639383        -2.086917
 H         4.399406         0.402150        -0.248447
 H         4.599402         2.615131        -1.027424
 H         3.888956         1.920257        -2.430315
 H         2.447311         3.996960        -1.000622
 H         1.608362         2.497687        -1.863850
 H         2.583606         1.130265         1.587704
