19
Iteration:  1951
 C        -0.053396         0.025764        -0.295153
 C         1.426122         0.236915        -0.143227
 O         2.108560        -1.068321         0.012763
 C         2.514421        -0.116219        -1.062642
 C         3.452813         0.839914        -0.451005
 C         3.663577         2.025509        -1.431292
 C         2.388772         2.872595        -1.116365
 O         1.960865         2.558922         0.215553
 C         2.347895         1.222229         0.550576
 H        -0.426595        -0.476613         0.608926
 H        -0.636103         0.981356        -0.392166
 H        -0.177614        -0.631510        -1.113077
 H         2.369430        -0.448575        -2.117825
 H         4.463968         0.548601        -0.044362
 H         4.496385         2.723038        -0.921015
 H         3.873946         1.750427        -2.504770
 H         2.402027         4.020590        -1.083137
 H         1.408004         2.630739        -1.704268
 H         2.469251         1.218435         1.639851
