19
Iteration:  2171
 C        -0.045895         0.092040        -0.113549
 C         1.451636         0.139147        -0.123940
 O         2.122459        -1.151226        -0.108942
 C         2.514235        -0.154964        -1.109993
 C         3.548495         0.781858        -0.486361
 C         3.699743         2.067977        -1.343575
 C         2.415915         2.923474        -1.104177
 O         1.799750         2.555388         0.147926
 C         2.322349         1.353825         0.571236
 H        -0.515395        -0.212419         0.821047
 H        -0.340357         1.146387        -0.216789
 H        -0.461659        -0.479118        -1.018175
 H         2.459118        -0.580297        -2.100943
 H         4.481719         0.221444        -0.112285
 H         4.626354         2.714885        -1.028628
 H         3.838691         1.980034        -2.424263
 H         2.493423         4.005741        -1.195355
 H         1.715898         2.582118        -1.830487
 H         2.300368         1.158091         1.634432
