19
Iteration:  3330charge 0 multiplicity 1
 C        -0.037905         0.149369        -0.162695
 C         1.456368         0.204283        -0.229491
 O         2.166779        -1.061043         0.007526
 C         2.579984        -0.332623        -1.094002
 C         3.427968         0.768822        -0.558199
 C         3.604292         2.119898        -1.374173
 C         2.290513         2.887412        -1.076447
 O         1.975825         2.578780         0.230393
 C         2.278140         1.246168         0.515439
 H        -0.583186         0.010252         0.750744
 H        -0.253779         1.181526        -0.411589
 H        -0.390640        -0.600045        -0.974946
 H         2.596289        -0.944752        -2.041985
 H         4.386806         0.525015        -0.180384
 H         4.441500         2.639212        -0.752139
 H         4.005074         1.958440        -2.425643
 H         2.433248         3.961404        -1.108748
 H         1.422725         2.690387        -1.787821
 H         2.701352         1.219496         1.511196
