19
Iteration:  4335
 C        -0.054257         0.084966        -0.219650
 C         1.449085        -0.035535        -0.071905
 O         2.194753        -1.233364         0.057406
 C         2.365243        -0.200308        -1.135922
 C         3.392335         0.987562        -0.562363
 C         3.715843         2.199774        -1.398692
 C         2.476102         3.074859        -1.000525
 O         1.907524         2.495449         0.191098
 C         2.330346         1.216651         0.407734
 H        -0.493081        -0.244418         0.769392
 H        -0.318910         1.271405        -0.348536
 H        -0.469764        -0.407660        -1.076417
 H         2.199306        -0.715434        -2.141884
 H         4.193859         0.393220        -0.108915
 H         4.692902         2.667580        -1.018394
 H         3.765751         2.055955        -2.510569
 H         2.611679         4.178924        -0.785827
 H         1.737109         3.106646        -1.839225
 H         2.582948         1.000985         1.491982
