19
Iteration:   495charge 0 multiplicity 1
 C        -0.037168         0.138630        -0.197518
 C         1.429480         0.245662         0.021211
 O         2.036866        -1.066166        -0.124163
 C         2.361045        -0.136482        -1.108614
 C         3.460318         0.752039        -0.603793
 C         3.730862         2.109037        -1.305371
 C         2.394248         2.797047        -1.097153
 O         1.940851         2.532463         0.197851
 C         2.479822         1.224361         0.568762
 H        -0.582599         0.142519         0.770585
 H        -0.359980         1.027403        -0.856444
 H         0.052088        -0.856840        -0.711426
 H         2.118459        -0.400860        -2.142874
 H         4.370065         0.394537        -0.256742
 H         4.596372         2.694091        -0.937916
 H         3.778061         1.769322        -2.330849
 H         2.464240         3.916086        -1.204465
 H         1.507227         2.540378        -1.824323
 H         2.820200         1.194541         1.616521
