19
Iteration:  4687charge 0 multiplicity 1
 C        -0.029148         0.228863        -0.326058
 C         1.413704         0.070239        -0.202971
 O         2.178955        -1.098277         0.198488
 C         2.573551        -0.379567        -1.020156
 C         3.511879         0.831455        -0.665815
 C         3.427711         2.059649        -1.600345
 C         2.529163         3.244361        -0.836936
 O         1.817615         2.423991         0.233824
 C         2.387443         1.164234         0.437445
 H        -0.626866         0.221795         0.645546
 H        -0.347261         1.086551        -0.732700
 H        -0.471308        -0.555648        -0.960657
 H         2.640256        -0.880454        -2.021019
 H         4.529337         0.623112        -0.342375
 H         4.405434         2.603385        -1.726742
 H         2.867290         1.877107        -2.544944
 H         3.194105         3.927963        -0.239412
 H         1.766323         3.679650        -1.361095
 H         2.558853         1.009432         1.579891
