19
Iteration:  4990charge 0 multiplicity 1
 C        -0.079760         0.180880        -0.255862
 C         1.462704         0.120970        -0.194901
 O         2.052165        -1.106138         0.006571
 C         2.533543        -0.271774        -1.164557
 C         3.524970         0.843640        -0.625742
 C         3.599927         2.225171        -1.331468
 C         2.209792         2.838429        -1.059750
 O         2.128642         2.569212         0.315465
 C         2.384149         1.185721         0.513299
 H        -0.234961         0.057517         0.759212
 H        -0.558711         1.101985        -0.558013
 H        -0.584534        -0.700446        -0.748719
 H         2.374308        -0.861942        -2.052808
 H         4.450675         0.549934        -0.126473
 H         4.265901         2.842651        -0.701985
 H         3.863520         2.173217        -2.443642
 H         2.294134         3.953737        -1.248247
 H         1.290328         2.389717        -1.510720
 H         2.563750         1.052470         1.536116
