19
Iteration:  3194charge 0 multiplicity 1
 C         0.039337         0.299844        -0.256575
 C         1.527445         0.082589        -0.110572
 O         2.178173        -1.220837         0.028842
 C         2.445807        -0.185748        -1.086502
 C         3.455842         0.826561        -0.527804
 C         3.641693         2.145030        -1.309531
 C         2.252344         2.817122        -1.173027
 O         1.881231         2.535726         0.214802
 C         2.384992         1.284428         0.517070
 H        -0.498926         0.285860         0.766050
 H        -0.235521         1.310726        -0.772092
 H        -0.341452        -0.545892        -0.845518
 H         2.387445        -0.470269        -2.123187
 H         4.507417         0.456791        -0.471231
 H         4.394580         2.679822        -0.769465
 H         3.826903         1.880017        -2.358162
 H         2.343955         3.956130        -1.264311
 H         1.278395         2.492578        -1.657865
 H         2.652502         1.116105         1.594809
