19
Iteration:  4303
 C        -0.065783        -0.026662        -0.091603
 C         1.429752         0.228597        -0.218988
 O         2.113583        -1.001137        -0.129874
 C         2.492216        -0.128851        -1.232497
 C         3.497545         0.786417        -0.450899
 C         3.651814         2.053182        -1.271083
 C         2.349521         2.872750        -1.098542
 O         1.937870         2.615897         0.257964
 C         2.360361         1.243626         0.503799
 H        -0.227678        -0.453436         0.955458
 H        -0.752585         0.893846        -0.342875
 H        -0.266703        -0.860931        -0.725221
 H         2.434133        -0.647389        -2.243927
 H         4.415140         0.292517        -0.076693
 H         4.495744         2.598127        -0.768304
 H         3.963046         1.833483        -2.302822
 H         2.652081         3.963141        -1.232420
 H         1.571118         2.632060        -1.924902
 H         2.538925         1.019493         1.556737
