19
Iteration:   606
 C        -0.015721         0.177896        -0.276192
 C         1.448024         0.116153        -0.030273
 O         2.210974        -1.174470        -0.046101
 C         2.389143        -0.196890        -1.076349
 C         3.341030         0.818520        -0.572951
 C         3.534607         2.004811        -1.452601
 C         2.427993         2.887212        -1.093732
 O         2.096100         2.653303         0.293480
 C         2.299202         1.289038         0.628766
 H        -0.796724        -0.301738         0.411731
 H        -0.470062         1.181891        -0.684386
 H        -0.225291        -0.393907        -1.252820
 H         2.305536        -0.422656        -2.149152
 H         4.368543         0.554363        -0.275613
 H         4.384866         2.559673        -1.029576
 H         3.838713         1.723631        -2.519631
 H         2.754544         3.934795        -1.213604
 H         1.596115         2.634029        -1.830297
 H         2.478747         1.151947         1.705961
