19
Iteration:  4567charge 0 multiplicity 1
 C        -0.122210         0.137198        -0.070458
 C         1.365011         0.132470        -0.119640
 O         2.198339        -1.141152        -0.093654
 C         2.462862        -0.218920        -1.160678
 C         3.447745         0.848081        -0.605662
 C         3.755048         2.234738        -1.242259
 C         2.373599         2.835332        -1.176088
 O         1.938919         2.603834         0.250386
 C         2.357207         1.189772         0.444931
 H        -0.473558        -0.355527         0.945076
 H        -0.534784         1.082989        -0.037121
 H        -0.489923        -0.504245        -0.935327
 H         2.367406        -0.586154        -2.232430
 H         4.309392         0.283669        -0.241395
 H         4.340445         2.849855        -0.410483
 H         4.251861         2.085352        -2.242223
 H         2.515455         3.961487        -1.332469
 H         1.513090         2.364708        -1.791781
 H         2.569418         0.958304         1.553159
