19
Iteration:  4323charge 0 multiplicity 1
 C        -0.095568         0.036538        -0.151808
 C         1.380541         0.100304        -0.117201
 O         2.202141        -1.164691        -0.050540
 C         2.474943        -0.213874        -1.091119
 C         3.439579         0.805871        -0.610534
 C         3.686941         2.183179        -1.347960
 C         2.447197         3.032343        -1.045572
 O         1.895340         2.567253         0.201731
 C         2.318440         1.231806         0.513504
 H        -0.590221        -0.364563         0.717953
 H        -0.501862         1.141958        -0.353258
 H        -0.395439        -0.622971        -0.976115
 H         2.317027        -0.555928        -2.156937
 H         4.452967         0.449106        -0.361519
 H         4.658342         2.599998        -0.928322
 H         3.873376         1.990590        -2.453658
 H         2.711956         4.088824        -0.845071
 H         1.704116         2.897496        -1.843344
 H         2.617259         1.261724         1.619911
