19
Iteration:  4381
 C        -0.055223         0.154601        -0.221352
 C         1.442234         0.177204        -0.260344
 O         2.162583        -1.094211         0.041661
 C         2.546364        -0.251816        -1.129782
 C         3.494521         0.844459        -0.510154
 C         3.540104         2.117285        -1.478950
 C         2.461750         3.028199        -0.915859
 O         1.827531         2.462675         0.245944
 C         2.349120         1.144698         0.481615
 H        -0.408603        -0.084861         0.886898
 H        -0.458758         1.126165        -0.577021
 H        -0.309906        -0.610911        -0.957730
 H         2.551564        -0.686850        -2.097992
 H         4.484917         0.594500        -0.049925
 H         4.532470         2.585044        -1.535760
 H         3.273424         1.690120        -2.413401
 H         2.994334         3.975038        -0.619131
 H         1.698399         3.409050        -1.654904
 H         2.683015         0.971883         1.467428
