19
Iteration:  1544charge 0 multiplicity 1
 C        -0.130046         0.047985        -0.245727
 C         1.366024         0.036023         0.005507
 O         2.235202        -1.115811         0.056386
 C         2.433145        -0.253442        -1.052731
 C         3.416727         0.868730        -0.554779
 C         3.662817         2.117332        -1.429618
 C         2.565498         3.027759        -1.027090
 O         1.858735         2.558496         0.051250
 C         2.285065         1.292488         0.524292
 H        -0.484871        -0.207051         0.764084
 H        -0.415291         0.996735        -0.690349
 H        -0.282357        -0.712421        -0.986064
 H         2.388659        -0.850939        -2.029468
 H         4.423347         0.503010        -0.380960
 H         4.592294         2.480593        -0.988637
 H         3.891364         2.027569        -2.472778
 H         3.149121         3.969901        -0.769674
 H         1.744683         3.196713        -1.789689
 H         2.526512         1.313466         1.613926
