19
Iteration:  4518charge 0 multiplicity 1
 C        -0.053502         0.289244        -0.165673
 C         1.460713         0.198303        -0.080794
 O         2.152295        -1.130290        -0.202822
 C         2.550305        -0.153458        -1.112745
 C         3.631689         0.852425        -0.458819
 C         3.603243         2.074876        -1.394176
 C         2.297352         2.767512        -1.047895
 O         1.823222         2.439611         0.200732
 C         2.398989         1.230140         0.626563
 H        -0.539911         0.004011         0.708447
 H        -0.337617         1.428565        -0.402374
 H        -0.553740        -0.327259        -0.892011
 H         2.483678        -0.284379        -2.200403
 H         4.618901         0.534678        -0.021360
 H         4.508645         2.689410        -1.268932
 H         3.607781         1.776277        -2.463600
 H         2.228328         3.860113        -1.147786
 H         1.469982         2.606198        -1.810879
 H         2.476722         1.091141         1.764018
