19
Iteration:  4895
 C        -0.033650         0.074070        -0.046714
 C         1.399233         0.038222        -0.135007
 O         2.194975        -1.105333         0.027413
 C         2.439753        -0.180073        -1.143358
 C         3.429483         0.805614        -0.599650
 C         3.657073         2.165345        -1.391767
 C         2.646744         3.223541        -0.887938
 O         1.750666         2.453127         0.011910
 C         2.259509         1.140319         0.388189
 H        -0.222259        -0.339438         1.076322
 H        -0.377416         1.062815        -0.156902
 H        -0.513131        -0.588147        -0.760819
 H         2.358106        -0.834023        -1.963852
 H         4.324495         0.298405        -0.277457
 H         4.704716         2.416326        -1.117292
 H         3.503218         2.092401        -2.411773
 H         2.961370         4.024032        -0.271396
 H         2.109044         3.524194        -1.760148
 H         2.668976         1.016207         1.428215
