19
Iteration:  2692
 C        -0.084638         0.076896        -0.166154
 C         1.449276         0.129557        -0.100243
 O         2.175820        -1.197055         0.074612
 C         2.568476        -0.184454        -1.062050
 C         3.449719         0.904653        -0.443464
 C         3.534746         2.074602        -1.493603
 C         2.660306         3.124794        -0.916259
 O         1.711841         2.501476        -0.028727
 C         2.287195         1.185994         0.452673
 H        -0.512487        -0.397470         0.794712
 H        -0.317274         1.115512        -0.251787
 H        -0.583240        -0.477838        -1.054242
 H         2.840076        -0.588098        -2.091371
 H         4.386319         0.577312        -0.088301
 H         4.554182         2.362378        -1.656969
 H         3.266923         1.608305        -2.380163
 H         3.188032         3.834311        -0.286146
 H         2.143135         3.655211        -1.823579
 H         2.674186         1.135353         1.480162
