19
Iteration:  1145charge 0 multiplicity 1
 C        -0.021638        -0.006943        -0.310336
 C         1.422348         0.134451        -0.088961
 O         2.072724        -1.064087        -0.003715
 C         2.517287        -0.222592        -1.063900
 C         3.443923         0.824290        -0.510162
 C         3.646247         2.070402        -1.459696
 C         2.416384         2.939577        -1.019002
 O         1.944961         2.696158         0.266344
 C         2.353622         1.221487         0.502856
 H        -0.391267        -0.072530         0.727791
 H        -0.325104         0.859225        -0.862959
 H        -0.280578        -0.819705        -0.933803
 H         2.331694        -0.670999        -1.975832
 H         4.393036         0.365649        -0.186477
 H         4.699005         2.457739        -1.247314
 H         3.573003         1.832783        -2.501178
 H         2.547857         3.984125        -1.107188
 H         1.502534         2.708575        -1.687949
 H         2.561353         1.166163         1.599503
