19
Iteration:  4155charge 0 multiplicity 1
 C        -0.112452        -0.125963        -0.370983
 C         1.327213         0.170175        -0.237622
 O         2.127499        -1.007207         0.047514
 C         2.520983        -0.313428        -1.059173
 C         3.475498         0.897761        -0.480123
 C         3.442933         2.064961        -1.537103
 C         2.488499         3.128075        -0.962983
 O         2.136816         2.580873         0.331203
 C         2.322951         1.199576         0.550637
 H        -0.612955        -0.472435         0.645233
 H        -0.562953         0.751020        -0.731727
 H        -0.168004        -1.048315        -1.088272
 H         2.513955        -0.878344        -2.047129
 H         4.463941         0.706638        -0.064485
 H         4.416047         2.639864        -1.585374
 H         3.280181         1.817194        -2.621034
 H         2.899845         4.132533        -0.665221
 H         1.723091         3.362938        -1.757576
 H         2.467894         1.006282         1.662841
