19
Iteration:  2714
 C        -0.026952         0.127290        -0.151112
 C         1.462457         0.107391        -0.125906
 O         2.186057        -1.134799         0.044633
 C         2.579780        -0.333589        -1.071856
 C         3.523527         0.819819        -0.500132
 C         3.558808         2.043514        -1.483593
 C         2.584346         3.149642        -0.863576
 O         1.730302         2.463066        -0.020306
 C         2.211451         1.359792         0.442625
 H        -0.339602        -0.594158         0.701123
 H        -0.357963         1.130591         0.024657
 H        -0.603665        -0.285547        -1.080127
 H         2.466735        -0.667656        -2.171082
 H         4.410755         0.649208         0.032607
 H         4.604209         2.195859        -1.539159
 H         3.390113         1.590475        -2.381749
 H         3.153418         3.906380        -0.254529
 H         1.844758         3.701351        -1.598763
 H         2.277916         1.274956         1.542905
