19
Iteration:  2766
 C        -0.076436        -0.061296        -0.215196
 C         1.362414         0.094898        -0.126055
 O         2.243518        -1.095250         0.124369
 C         2.416185        -0.258885        -1.016312
 C         3.405323         0.843474        -0.580171
 C         3.546440         2.118932        -1.485965
 C         2.756679         3.169332        -0.838946
 O         1.744635         2.560255         0.007378
 C         2.322254         1.277980         0.396685
 H        -0.433292        -0.587240         0.700479
 H        -0.572326         0.815496        -0.474389
 H        -0.233099        -0.878146        -0.934409
 H         2.343647        -0.712407        -2.023155
 H         4.294789         0.484211        -0.047975
 H         4.706826         2.301694        -1.547902
 H         3.229679         1.673336        -2.494757
 H         3.457859         3.763737        -0.185930
 H         2.239293         3.822959        -1.529476
 H         2.586880         1.112922         1.447754
