19
Iteration:  1980charge 0 multiplicity 1
 C        -0.115875         0.004840        -0.385235
 C         1.374471         0.123806        -0.159084
 O         2.147319        -1.035158         0.126995
 C         2.545633        -0.322105        -1.087352
 C         3.438087         0.812603        -0.570562
 C         3.637082         2.116583        -1.410445
 C         2.357382         2.908105        -1.081122
 O         2.060957         2.678506         0.323018
 C         2.364593         1.245245         0.494927
 H        -0.811304        -0.056004         0.489162
 H        -0.535678         1.040031        -0.669539
 H        -0.326503        -0.675408        -1.212670
 H         2.421457        -0.748472        -2.045992
 H         4.395778         0.593032        -0.202458
 H         4.390875         2.697100        -0.945393
 H         3.921810         2.144379        -2.513654
 H         2.197164         3.982361        -1.167123
 H         1.502566         2.459147        -1.502589
 H         2.536819         1.048997         1.595563
