19
Iteration:  2618
 C        -0.151063        -0.092927        -0.235020
 C         1.389783         0.070820        -0.196460
 O         2.240218        -1.115534         0.230602
 C         2.542510        -0.271981        -1.037363
 C         3.394242         0.908703        -0.604998
 C         3.470469         2.048812        -1.586620
 C         2.907274         3.252463        -0.726580
 O         1.737719         2.554545         0.028434
 C         2.197107         1.264242         0.351255
 H        -0.596658         0.098464         0.754547
 H        -0.696463         0.373189        -1.015610
 H        -0.173821        -1.199393        -0.459639
 H         2.687649        -1.084555        -1.860747
 H         4.389510         0.616543        -0.232790
 H         4.438684         2.322365        -1.876747
 H         2.906998         2.105918        -2.592830
 H         3.701120         3.539078         0.036050
 H         2.578919         4.168338        -1.295264
 H         2.338392         1.320470         1.456416
