19
Iteration:  3106
 C        -0.121023         0.007512        -0.178392
 C         1.390941         0.077794        -0.109244
 O         2.168106        -1.112503         0.063774
 C         2.517309        -0.251107        -1.062845
 C         3.467403         0.808381        -0.505319
 C         3.713275         2.191631        -1.459308
 C         2.426197         3.034807        -1.075910
 O         1.949761         2.546764         0.169335
 C         2.278428         1.264757         0.452786
 H        -0.596841        -0.443701         0.763527
 H        -0.408945         1.066662        -0.214441
 H        -0.617353        -0.337989        -1.144309
 H         2.278560        -0.509379        -2.095457
 H         4.387094         0.267851        -0.226996
 H         4.598630         2.806429        -1.229300
 H         3.822725         1.954870        -2.538942
 H         2.542333         4.132851        -0.846120
 H         1.637022         2.859678        -1.798731
 H         2.636931         1.090966         1.493270
