19
Iteration:  3889charge 0 multiplicity 1
 C        -0.034835         0.090444        -0.250766
 C         1.477279         0.105115        -0.148328
 O         2.275357        -1.145683         0.166582
 C         2.518620        -0.294013        -1.034206
 C         3.360297         0.860680        -0.617093
 C         3.378560         2.025881        -1.551763
 C         2.746939         3.276226        -0.751221
 O         1.742189         2.456402        -0.021255
 C         2.327492         1.202362         0.487632
 H        -0.516021         0.433663         0.705595
 H        -0.406981         0.882653        -0.953949
 H        -0.506511        -0.773170        -0.582257
 H         2.361993        -0.789993        -1.948333
 H         4.321422         0.572162        -0.191419
 H         4.398475         2.285153        -1.961462
 H         2.687982         1.761220        -2.417316
 H         3.463342         3.850400        -0.076461
 H         2.159537         3.903429        -1.390969
 H         2.696041         1.139831         1.508702
