19
Iteration:  4159charge 0 multiplicity 1
 C        -0.145471        -0.115861        -0.333485
 C         1.374399         0.213390        -0.262239
 O         2.130442        -1.038404         0.042724
 C         2.567853        -0.272032        -1.053132
 C         3.455705         0.891553        -0.509074
 C         3.453782         2.049514        -1.523974
 C         2.499764         3.093730        -0.974501
 O         2.088925         2.601800         0.338940
 C         2.320303         1.191978         0.526661
 H        -0.508408        -0.509636         0.532686
 H        -0.680183         0.831765        -0.732803
 H        -0.208951        -0.978366        -1.016706
 H         2.583669        -0.848788        -1.915005
 H         4.490240         0.755711        -0.165117
 H         4.445492         2.476769        -1.504793
 H         3.222987         1.794909        -2.587210
 H         3.020711         3.917520        -0.532990
 H         1.622710         3.294102        -1.622865
 H         2.422797         1.075630         1.631279
