19
Iteration:  1454charge 0 multiplicity 1
 C         0.039927         0.208100        -0.435147
 C         1.447019         0.239759        -0.124754
 O         2.117346        -1.038024         0.132626
 C         2.470710        -0.206358        -1.079299
 C         3.543702         0.782689        -0.535594
 C         3.582636         2.064855        -1.436944
 C         2.205263         2.750065        -1.118165
 O         1.997252         2.568242         0.362158
 C         2.435113         1.241814         0.531899
 H        -0.723748         0.009068         0.369779
 H        -0.344492         1.087183        -1.000077
 H        -0.172364        -0.616428        -1.212627
 H         2.319588        -0.635154        -2.032813
 H         4.409657         0.198230        -0.336966
 H         4.189418         2.771030        -0.905493
 H         3.796719         2.066403        -2.475558
 H         2.237583         3.837052        -1.321188
 H         1.397806         2.096124        -1.638187
 H         2.604154         1.181327         1.657438
