19
Iteration:   462
 C        -0.152746         0.190614        -0.101747
 C         1.376398         0.077080        -0.236816
 O         2.170961        -1.107905        -0.002895
 C         2.450935        -0.247895        -1.138121
 C         3.522379         0.759605        -0.573932
 C         3.691362         2.146807        -1.300441
 C         2.410996         2.924914        -1.114087
 O         2.052364         2.649280         0.253316
 C         2.247064         1.127574         0.444216
 H        -0.382788         0.204928         0.984780
 H        -0.551247         1.130842        -0.637137
 H        -0.910297        -0.540455        -0.521887
 H         2.435891        -0.606002        -2.155226
 H         4.469065         0.399648        -0.363352
 H         4.591432         2.683486        -0.956650
 H         3.944638         1.877324        -2.308880
 H         2.696397         4.002160        -1.099971
 H         1.415523         2.714610        -1.577145
 H         2.400694         1.169328         1.508540
