19
Iteration:  3086charge 0 multiplicity 1
 C        -0.040284         0.007214        -0.218137
 C         1.416509         0.131767        -0.077444
 O         2.199633        -1.087089         0.110046
 C         2.390870        -0.285832        -1.105455
 C         3.403084         0.849346        -0.653429
 C         3.659250         2.098962        -1.377165
 C         2.519459         3.086148        -1.023739
 O         1.838676         2.584924         0.154487
 C         2.342861         1.227900         0.481587
 H        -0.390856        -0.468869         0.724867
 H        -0.540691         0.942686        -0.533638
 H        -0.248347        -0.674245        -1.023689
 H         2.382102        -0.934331        -1.973510
 H         4.366192         0.553786        -0.281699
 H         4.698213         2.432420        -1.222607
 H         3.709042         2.120302        -2.572429
 H         3.016051         4.058542        -0.822242
 H         1.743394         3.143892        -1.755189
 H         2.578899         0.922613         1.547425
