19
Iteration:   180charge 0 multiplicity 1
 C        -0.054617         0.167457        -0.209933
 C         1.437099         0.150731         0.068680
 O         1.970444        -1.220422        -0.108246
 C         2.428735        -0.302752        -1.091395
 C         3.444397         0.820101        -0.548265
 C         3.711123         2.111589        -1.426290
 C         2.452988         2.923063        -1.138887
 O         1.874654         2.601515         0.229051
 C         2.510448         1.325745         0.597864
 H        -0.458262        -0.333142         0.659854
 H        -0.435039         1.140739        -0.520905
 H        -0.067793        -0.535670        -1.053843
 H         2.359883        -0.401489        -2.174142
 H         4.434146         0.307843        -0.183577
 H         4.570134         2.689943        -1.057395
 H         3.909159         2.051993        -2.528936
 H         2.605488         4.008665        -1.147408
 H         1.659557         2.811108        -1.866233
 H         2.962533         1.251512         1.553584
