19
Iteration:  2671charge 0 multiplicity 1
 C        -0.056750         0.009362        -0.222683
 C         1.434208         0.100406        -0.097044
 O         2.202689        -1.099154         0.056515
 C         2.526347        -0.299620        -1.006255
 C         3.411370         0.854327        -0.541893
 C         3.598708         2.040622        -1.537670
 C         2.681225         3.172391        -0.853255
 O         1.736407         2.536847         0.004203
 C         2.255144         1.242815         0.528415
 H        -0.546115        -0.226223         0.771865
 H        -0.315083         0.946672        -0.657145
 H        -0.408135        -0.863544        -0.882915
 H         2.333237        -0.805374        -2.013983
 H         4.361768         0.463530        -0.242748
 H         4.516059         2.512491        -1.641870
 H         3.199543         1.952052        -2.500211
 H         3.270623         3.836580        -0.308849
 H         2.128259         3.736179        -1.689066
 H         2.459934         1.441933         1.587102
