19
Iteration:  2808charge 0 multiplicity 1
 C        -0.156146        -0.135858        -0.185813
 C         1.360679         0.091434        -0.184714
 O         2.245755        -1.108084         0.111171
 C         2.568387        -0.333981        -1.045479
 C         3.375112         0.962193        -0.579004
 C         3.452311         2.017251        -1.490713
 C         2.954543         3.242287        -0.762660
 O         1.732396         2.539794        -0.018040
 C         2.233290         1.304813         0.376509
 H        -0.460209         0.102523         0.823669
 H        -0.788729         0.532641        -0.851947
 H        -0.539840        -1.130554        -0.209317
 H         2.552294        -0.955801        -1.914175
 H         4.429523         0.731430        -0.130239
 H         4.497472         2.380909        -1.864080
 H         2.725152         2.253399        -2.428705
 H         3.660527         3.495686        -0.019818
 H         2.574485         4.028252        -1.286467
 H         2.469170         1.319065         1.474736
