19
Iteration:  2788charge 0 multiplicity 1
 C        -0.047263        -0.121240        -0.127273
 C         1.376081         0.060795        -0.192372
 O         2.173510        -1.055593         0.108327
 C         2.536684        -0.274518        -1.054635
 C         3.390330         0.829268        -0.580612
 C         3.553894         2.013614        -1.593139
 C         2.792049         3.214387        -0.710315
 O         1.786150         2.610735        -0.033967
 C         2.217204         1.303542         0.457735
 H        -0.592096        -0.266750         0.785990
 H        -0.428098         0.557227        -0.797175
 H        -0.159820        -1.116470        -0.594173
 H         2.481797        -0.702800        -2.080702
 H         4.213226         0.430660         0.017813
 H         4.571681         2.508158        -1.863181
 H         2.903798         1.997030        -2.549532
 H         3.563310         3.696991        -0.091968
 H         2.300839         3.933459        -1.331299
 H         2.191703         1.218018         1.546688
