19
Iteration:  4417
 C        -0.080204         0.054514        -0.287530
 C         1.409461         0.114995        -0.231646
 O         2.213842        -1.240097        -0.082414
 C         2.537105        -0.303975        -1.094782
 C         3.392265         0.911356        -0.413836
 C         3.454203         2.039554        -1.458428
 C         2.469424         3.064071        -1.005290
 O         2.017396         2.707511         0.374524
 C         2.362366         1.260911         0.513281
 H        -0.691526        -0.079435         0.688458
 H        -0.502581         0.852237        -0.834390
 H        -0.304586        -0.947224        -0.852337
 H         2.441497        -0.591915        -2.168505
 H         4.341378         0.413219        -0.064275
 H         4.382507         2.527670        -1.610368
 H         3.216820         1.689997        -2.464182
 H         3.031502         4.026639        -0.810872
 H         1.572197         3.338853        -1.736189
 H         2.517561         1.040782         1.555220
