19
Iteration:  3238charge 0 multiplicity 1
 C        -0.204722         0.013463        -0.224890
 C         1.437096         0.163611        -0.271170
 O         2.182015        -1.098098         0.126123
 C         2.572910        -0.241659        -1.051541
 C         3.471181         0.882725        -0.567262
 C         3.548423         2.123382        -1.461190
 C         2.466152         3.024350        -1.073858
 O         1.977356         2.579884         0.265898
 C         2.328914         1.145443         0.478631
 H        -0.517402         0.058731         0.877853
 H        -0.599583         1.008108        -0.670467
 H        -0.451093        -0.923903        -0.657916
 H         2.608539        -0.692313        -2.022142
 H         4.321475         0.476104         0.006005
 H         4.456273         2.640283        -1.294029
 H         3.483898         1.817852        -2.487695
 H         2.714361         4.121882        -0.928001
 H         1.731728         3.006512        -1.976587
 H         2.499643         0.888228         1.570012
