19
Iteration:  4003charge 0 multiplicity 1
 C        -0.018214         0.073664        -0.140286
 C         1.440534         0.161055        -0.090725
 O         2.145802        -1.073190        -0.032531
 C         2.438703        -0.133929        -1.141162
 C         3.412928         0.804506        -0.607366
 C         3.725539         2.121176        -1.286068
 C         2.351316         2.887705        -1.203495
 O         1.929632         2.517432         0.192385
 C         2.340334         1.232024         0.562080
 H        -0.267663        -0.522430         0.705327
 H        -0.342853         1.026374         0.113542
 H        -0.482551        -0.286497        -1.080739
 H         2.130732        -0.533902        -2.181662
 H         4.363142         0.391319        -0.242438
 H         4.318747         2.721575        -0.566541
 H         4.211260         2.062357        -2.280294
 H         2.534754         3.950416        -1.297626
 H         1.600156         2.511719        -1.874961
 H         2.666228         1.260810         1.658768
