19
Iteration:   771charge 0 multiplicity 1
 C        -0.146636         0.119851        -0.080479
 C         1.291761         0.159721        -0.224601
 O         2.083522        -1.064936         0.011284
 C         2.585684        -0.315068        -1.117575
 C         3.531766         0.817371        -0.609561
 C         3.701300         2.122487        -1.346893
 C         2.398079         2.911738        -1.175161
 O         2.052159         2.606205         0.240804
 C         2.268023         1.221622         0.499821
 H        -0.435575        -0.748454         0.641977
 H        -0.590573         1.083769         0.324542
 H        -0.648674        -0.160219        -1.072206
 H         2.600281        -0.820652        -2.045529
 H         4.431661         0.539383        -0.110033
 H         4.363055         2.700040        -0.665943
 H         4.302657         2.090428        -2.307824
 H         2.375478         3.977873        -1.191124
 H         1.629833         2.535096        -1.862081
 H         2.476314         1.136957         1.534290
