19
Iteration:  2045charge 0 multiplicity 1
 C         0.041240         0.236802        -0.326939
 C         1.490205         0.141228        -0.115124
 O         2.122656        -1.134447        -0.009234
 C         2.577425        -0.237547        -1.044790
 C         3.547351         0.859163        -0.399695
 C         3.458801         2.020438        -1.458183
 C         2.363909         2.979806        -1.092938
 O         1.851334         2.514577         0.225881
 C         2.360002         1.183786         0.568858
 H        -0.514765         0.598113         0.622388
 H        -0.159832         1.114647        -1.074058
 H        -0.278977        -0.799100        -0.670464
 H         2.546444        -0.423143        -2.096485
 H         4.535091         0.551226        -0.156947
 H         4.379266         2.491258        -1.405295
 H         3.277692         1.573171        -2.450262
 H         2.760772         3.993248        -0.982447
 H         1.620391         2.992219        -1.901538
 H         2.415004         1.061217         1.711677
