19
Iteration:  3195
 C         0.046152         0.293215        -0.252286
 C         1.526180         0.084957        -0.117052
 O         2.178103        -1.219830         0.036436
 C         2.446510        -0.194519        -1.093854
 C         3.447955         0.826865        -0.531106
 C         3.643120         2.145728        -1.304559
 C         2.258034         2.824037        -1.180950
 O         1.873862         2.537174         0.223153
 C         2.388182         1.280288         0.517863
 H        -0.492101         0.291878         0.762702
 H        -0.236743         1.311284        -0.794131
 H        -0.343280        -0.521932        -0.838011
 H         2.408352        -0.448987        -2.126859
 H         4.480374         0.491031        -0.472111
 H         4.415511         2.654916        -0.775601
 H         3.782312         1.895437        -2.409384
 H         2.395892         3.942528        -1.274599
 H         1.293798         2.504411        -1.649059
 H         2.625923         1.112622         1.601772
