19
Iteration:  3146
 C         0.017479         0.149957        -0.184747
 C         1.453946         0.203476        -0.201042
 O         2.113311        -1.057086        -0.080264
 C         2.501427        -0.159177        -1.096709
 C         3.552504         0.806933        -0.479144
 C         3.727368         2.049898        -1.355002
 C         2.163795         2.743048        -1.120517
 O         1.962130         2.612829         0.219557
 C         2.351722         1.229360         0.551566
 H        -0.195527        -0.243920         0.800637
 H        -0.341867         1.134932        -0.079792
 H        -0.541873        -0.464211        -0.947479
 H         2.466764        -0.455918        -2.163846
 H         4.345640         0.460491         0.247701
 H         4.545818         2.638381        -0.878136
 H         3.743594         1.974024        -2.387084
 H         2.170143         3.780010        -1.461577
 H         1.356010         2.212117        -1.739657
 H         2.264409         1.238091         1.633647
