19
Iteration:  2659
 C        -0.045943        -0.038352        -0.241361
 C         1.396167         0.136429        -0.076989
 O         2.228202        -1.117751         0.149472
 C         2.462506        -0.302781        -1.075931
 C         3.431950         0.791167        -0.615516
 C         3.525012         2.133458        -1.480486
 C         2.762255         3.182627        -0.842936
 O         1.710185         2.570642         0.003274
 C         2.291319         1.265812         0.479558
 H        -0.644105         0.070046         0.738918
 H        -0.564395         0.744838        -0.771886
 H        -0.177764        -0.995134        -0.882304
 H         2.637325        -0.769358        -2.095716
 H         4.374334         0.478836        -0.219509
 H         4.584360         2.153492        -1.580515
 H         3.169963         1.778572        -2.363646
 H         3.298343         3.901082        -0.298485
 H         2.155575         3.792523        -1.633543
 H         2.499292         1.025510         1.537035
