19
Iteration:  4576charge 0 multiplicity 1
 C        -0.153728         0.028119        -0.078001
 C         1.371612         0.136595        -0.179975
 O         2.183838        -1.063723        -0.030736
 C         2.427665        -0.180203        -1.184207
 C         3.401788         0.814096        -0.626186
 C         3.787035         2.154298        -1.258954
 C         2.373893         2.916055        -1.143251
 O         1.963381         2.607521         0.243601
 C         2.374503         1.186427         0.482028
 H        -0.342624        -0.418891         0.898529
 H        -0.528936         1.026397        -0.111531
 H        -0.591087        -0.588520        -0.895287
 H         2.491218        -0.577676        -2.210089
 H         4.236527         0.410306        -0.107194
 H         4.469277         2.777529        -0.530666
 H         4.288750         2.230110        -2.266160
 H         2.237746         4.042409        -1.245960
 H         1.793245         2.404026        -1.924329
 H         2.829755         0.777916         1.476046
