19
Iteration:    15charge 0 multiplicity 1
 C        -0.103664         0.224542        -0.127219
 C         1.408936         0.284576        -0.270677
 O         1.992000        -1.181927         0.009917
 C         2.548555        -0.406093        -1.076492
 C         3.520380         0.738980        -0.611314
 C         3.652212         2.127151        -1.442205
 C         2.423669         2.964995        -1.132417
 O         1.916918         2.674763         0.318325
 C         2.431638         1.177108         0.566259
 H        -0.159128        -0.247267         0.852233
 H        -0.803250         1.100477        -0.181681
 H        -0.566507        -0.517618        -0.807293
 H         2.705836        -1.034383        -2.095125
 H         4.665086         0.406303        -0.373779
 H         4.544795         2.605569        -0.866620
 H         3.923255         2.112519        -2.498156
 H         2.633328         4.090765        -1.233942
 H         1.620280         2.752388        -1.859440
 H         2.540386         0.957986         1.573122
