19
Iteration:  3784
 C        -0.146850        -0.199190        -0.248368
 C         1.342587         0.093315        -0.084627
 O         2.172556        -1.064064         0.090961
 C         2.540901        -0.216820        -1.012340
 C         3.412867         0.876034        -0.529008
 C         3.502254         2.019493        -1.573219
 C         2.772056         3.228300        -0.890052
 O         1.928213         2.587631         0.116636
 C         2.286282         1.281753         0.420518
 H        -0.472594        -0.649299         0.765660
 H        -0.723381         0.668723        -0.478305
 H        -0.423085        -0.998665        -1.062785
 H         2.151601        -0.631316        -1.893471
 H         4.461429         0.615892        -0.261360
 H         4.464833         2.226362        -2.042948
 H         2.804229         1.786429        -2.295787
 H         3.354295         4.019854        -0.442110
 H         2.023865         3.809736        -1.494326
 H         2.462714         1.229355         1.521025
