19
Iteration:  1991charge 0 multiplicity 1
 C        -0.060151         0.116015        -0.414902
 C         1.406260         0.102131        -0.206219
 O         2.189681        -1.109137         0.152395
 C         2.498363        -0.308304        -1.033433
 C         3.405712         0.863386        -0.598603
 C         3.605011         2.077579        -1.419239
 C         2.241164         2.919615        -1.036901
 O         2.113481         2.663766         0.344912
 C         2.297096         1.289054         0.439050
 H        -0.412086        -0.173998         0.608273
 H        -0.427393         1.054486        -0.956300
 H        -0.405151        -0.767216        -0.975493
 H         2.742238        -0.823520        -1.910191
 H         4.284866         0.438034        -0.211468
 H         4.318338         2.495920        -0.797103
 H         4.077847         2.037012        -2.452288
 H         2.514705         3.963698        -1.192378
 H         1.475826         2.658227        -1.692052
 H         2.495180         0.980279         1.504094
