19
Iteration:  1439charge 0 multiplicity 1
 C        -0.016205         0.174440        -0.457245
 C         1.504685         0.211701        -0.047143
 O         2.086318        -1.038662         0.079638
 C         2.444003        -0.227475        -1.041272
 C         3.489197         0.766097        -0.539587
 C         3.586714         2.144823        -1.360919
 C         2.194716         2.822910        -1.104626
 O         2.011690         2.548182         0.225904
 C         2.481391         1.206995         0.578283
 H        -0.629355        -0.169190         0.410264
 H        -0.381531         1.180319        -0.739631
 H        -0.012590        -0.633259        -1.166753
 H         2.404069        -0.786295        -2.026400
 H         4.510396         0.569777        -0.073735
 H         4.524018         2.697433        -1.142366
 H         3.620817         1.683967        -2.355781
 H         2.250564         3.897395        -1.262648
 H         1.361040         2.620717        -1.816837
 H         2.805289         1.041288         1.595047
