19
Iteration:  2903
 C         0.009713         0.019878        -0.206030
 C         1.424513         0.111352        -0.157535
 O         2.185866        -1.134152         0.060089
 C         2.550324        -0.327011        -1.028361
 C         3.443461         0.836833        -0.551717
 C         3.399455         1.982596        -1.584586
 C         2.697313         3.214434        -0.832671
 O         1.803815         2.582058         0.111568
 C         2.236057         1.321287         0.446251
 H        -0.518061        -0.531815         0.582070
 H        -0.437207         1.109717        -0.384037
 H        -0.304056        -0.619704        -1.015208
 H         2.720863        -0.894140        -1.907680
 H         4.389615         0.573671        -0.022693
 H         4.404256         2.279642        -1.717753
 H         3.138464         1.496558        -2.449279
 H         3.421505         3.796472        -0.214861
 H         2.038848         3.829004        -1.579449
 H         2.408392         1.327238         1.565799
