19
Iteration:  2254
 C        -0.170723         0.013976        -0.267126
 C         1.428444         0.176990        -0.108621
 O         2.089488        -1.090945        -0.103316
 C         2.562754        -0.135397        -1.012276
 C         3.559536         0.830338        -0.489515
 C         3.645660         2.080097        -1.361271
 C         2.353005         2.856750        -1.093815
 O         2.000179         2.635737         0.241319
 C         2.351084         1.261815         0.531569
 H        -0.659095        -0.064702         0.719539
 H        -0.592015         0.840967        -0.909775
 H        -0.153107        -0.930990        -0.705742
 H         2.443587        -0.417160        -2.084645
 H         4.371490         0.255621        -0.096469
 H         4.482857         2.680362        -1.040110
 H         3.609491         1.762129        -2.441227
 H         2.572526         3.958116        -1.286124
 H         1.462333         2.579969        -1.723270
 H         2.507772         1.055766         1.605346
