19
Iteration:  3318
 C        -0.048903         0.061058        -0.256242
 C         1.417833         0.154634        -0.178601
 O         2.158282        -1.062583         0.098908
 C         2.494155        -0.304936        -1.088346
 C         3.457757         0.851995        -0.602806
 C         3.626174         2.121832        -1.372347
 C         2.371740         2.954703        -1.112298
 O         1.999846         2.599124         0.290681
 C         2.339229         1.235571         0.477905
 H        -0.278534        -0.267787         0.763032
 H        -0.578356         0.992095        -0.514793
 H        -0.515604        -0.690698        -0.981557
 H         2.415280        -0.760634        -2.112367
 H         4.308336         0.432838        -0.168788
 H         4.526345         2.688754        -1.086297
 H         3.653559         1.929924        -2.489066
 H         2.528085         4.024186        -1.079371
 H         1.553041         2.633421        -1.845417
 H         2.202223         0.984676         1.510951
