19
Iteration:  1729charge 0 multiplicity 1
 C        -0.000120         0.179285        -0.377219
 C         1.463550         0.201047        -0.167120
 O         2.057146        -1.056819        -0.008971
 C         2.582774        -0.212511        -0.987168
 C         3.586686         0.885922        -0.456946
 C         3.548052         2.004985        -1.453987
 C         2.251069         2.827803        -1.056605
 O         1.955881         2.544641         0.278484
 C         2.401439         1.232420         0.549282
 H        -0.581700         0.102176         0.629604
 H        -0.339515         1.200363        -0.683453
 H        -0.391234        -0.497084        -1.129628
 H         2.653957        -0.596146        -2.070060
 H         4.502726         0.625911         0.030834
 H         4.587427         2.350340        -1.529156
 H         3.471707         1.527096        -2.518752
 H         2.193032         3.907966        -1.103477
 H         1.403682         2.415971        -1.570790
 H         2.526690         1.178086         1.666911
