19
Iteration:  2496charge 0 multiplicity 1
 C        -0.086622         0.086980        -0.194373
 C         1.436858         0.076066        -0.183270
 O         2.196239        -1.160989         0.021371
 C         2.530057        -0.227906        -1.030762
 C         3.493589         0.866216        -0.422448
 C         3.553022         2.001136        -1.456536
 C         2.587201         3.133267        -0.969128
 O         1.780596         2.525705         0.050256
 C         2.288266         1.292331         0.492893
 H        -0.361934        -0.175925         0.817906
 H        -0.492058         1.071542        -0.260259
 H        -0.541005        -0.477053        -0.989655
 H         2.575936        -0.532596        -2.058936
 H         4.416894         0.503768         0.044952
 H         4.603293         2.279952        -1.554951
 H         3.449467         1.557081        -2.503157
 H         2.947184         4.131493        -0.581452
 H         1.873471         3.379297        -1.838200
 H         2.500337         1.130725         1.568852
