19
Iteration:  3184
 C        -0.006392         0.284209        -0.260819
 C         1.446053         0.124507        -0.009101
 O         2.173244        -1.171010        -0.047286
 C         2.510777        -0.175179        -1.079191
 C         3.534453         0.837811        -0.535282
 C         3.603884         2.130590        -1.339223
 C         2.196627         2.791886        -1.140081
 O         1.939831         2.531837         0.186343
 C         2.397052         1.212776         0.544396
 H        -0.558979         0.241031         0.738393
 H        -0.186804         1.340052        -0.713732
 H        -0.414819        -0.482116        -0.911293
 H         2.251731        -0.605390        -2.027427
 H         4.405964         0.334988        -0.100185
 H         4.252562         2.845633        -0.865234
 H         4.153511         1.980762        -2.308484
 H         2.072380         3.899767        -1.242348
 H         1.582212         2.319801        -1.960979
 H         2.680218         1.311584         1.629504
