19
Iteration:  3827
 C        -0.083503        -0.094395        -0.304620
 C         1.375530         0.090659        -0.119917
 O         2.236288        -1.047568         0.217977
 C         2.523390        -0.437669        -1.023784
 C         3.419658         0.845178        -0.692562
 C         3.347523         2.062920        -1.586349
 C         2.815687         3.243767        -0.745457
 O         1.867582         2.631198         0.102520
 C         2.239055         1.274431         0.388855
 H        -0.574420        -0.316468         0.698460
 H        -0.238622         0.888960        -0.659592
 H        -0.300002        -0.922791        -0.997303
 H         2.481783        -0.916555        -1.962629
 H         4.310002         0.542101        -0.121225
 H         4.276432         2.296848        -2.154660
 H         2.594984         1.832247        -2.306628
 H         3.533557         3.769309        -0.087633
 H         2.327431         3.948430        -1.396263
 H         2.510494         1.169267         1.497817
