19
Iteration:  1724charge 0 multiplicity 1
 C        -0.041414         0.176827        -0.330993
 C         1.466746         0.202664        -0.212201
 O         2.041784        -1.093677         0.002420
 C         2.605218        -0.198445        -1.049464
 C         3.585634         0.931126        -0.405553
 C         3.539561         2.027973        -1.447661
 C         2.269075         2.764504        -1.079024
 O         1.970317         2.570376         0.289796
 C         2.415575         1.226738         0.540714
 H        -0.578626         0.217875         0.564502
 H        -0.303108         1.197580        -0.613125
 H        -0.354288        -0.547303        -1.103666
 H         2.614431        -0.580613        -2.030019
 H         4.478689         0.550123         0.164782
 H         4.478466         2.601311        -1.634090
 H         3.516860         1.467586        -2.412204
 H         2.298333         3.873033        -1.149979
 H         1.352856         2.371282        -1.619331
 H         2.455110         1.092177         1.604937
