19
Iteration:  2643
 C        -0.082081        -0.106831        -0.248104
 C         1.404254         0.075470        -0.129324
 O         2.206597        -1.056370         0.189703
 C         2.499810        -0.307535        -1.055928
 C         3.369960         0.875944        -0.580390
 C         3.552876         2.044416        -1.526777
 C         2.726136         3.235883        -0.759509
 O         1.815963         2.541042         0.023705
 C         2.242883         1.262922         0.353741
 H        -0.529525         0.050308         0.720288
 H        -0.448703         0.620639        -1.030237
 H        -0.359152        -1.075796        -0.581514
 H         2.242962        -0.881810        -1.933205
 H         4.328984         0.433937        -0.166536
 H         4.575268         2.535643        -1.739422
 H         3.113991         1.932125        -2.619859
 H         3.469264         3.828054        -0.018116
 H         2.292649         3.910481        -1.452902
 H         2.615022         1.372026         1.392727
