19
Iteration:  2676
 C        -0.058452         0.035618        -0.210280
 C         1.428925         0.029917        -0.115230
 O         2.192710        -1.117547         0.061560
 C         2.517016        -0.251959        -1.016404
 C         3.434691         0.893307        -0.523303
 C         3.595508         1.999280        -1.522710
 C         2.641954         3.160842        -0.874728
 O         1.754969         2.492582         0.013191
 C         2.279590         1.294609         0.465134
 H        -0.490918        -0.235446         0.725072
 H        -0.450240         1.046816        -0.551674
 H        -0.341837        -0.741562        -0.862068
 H         2.303820        -0.676795        -1.960330
 H         4.402299         0.598678         0.025525
 H         4.637704         2.516742        -1.552914
 H         3.157199         1.888882        -2.597232
 H         3.413275         3.858109        -0.314818
 H         2.019504         3.773869        -1.477916
 H         2.344355         1.467318         1.565785
