19
Iteration:  1896
 C        -0.101219         0.210927        -0.090814
 C         1.442831         0.097439        -0.137660
 O         2.147375        -1.066380        -0.036103
 C         2.529943        -0.216545        -1.157331
 C         3.488290         0.819073        -0.540490
 C         3.732624         2.198387        -1.186553
 C         2.397218         2.852196        -1.188306
 O         1.820565         2.489973         0.140090
 C         2.307909         1.175180         0.455567
 H        -0.374102        -0.223318         0.868975
 H        -0.231429         1.289382        -0.256543
 H        -0.578771        -0.318979        -0.815460
 H         2.596980        -0.888634        -1.982596
 H         4.496803         0.502663        -0.205955
 H         4.481299         2.928226        -0.654969
 H         4.144938         1.971438        -2.202700
 H         2.508228         3.992221        -1.168876
 H         1.642758         2.580321        -2.011604
 H         2.482988         1.189911         1.537842
