19
Iteration:  1022charge 0 multiplicity 1
 C        -0.082788         0.098793        -0.239213
 C         1.454218         0.228206        -0.000318
 O         2.226173        -1.053440        -0.040508
 C         2.385583        -0.180725        -1.123458
 C         3.439202         0.783174        -0.516712
 C         3.654682         2.060736        -1.318887
 C         2.381664         2.813362        -1.168961
 O         1.975536         2.587522         0.194700
 C         2.334997         1.245389         0.568819
 H        -0.599288        -0.514864         0.471240
 H        -0.582116         1.057493        -0.158218
 H        -0.110991        -0.135242        -1.327957
 H         2.284769        -0.368107        -2.272541
 H         4.337537         0.254408        -0.105077
 H         4.484376         2.634702        -0.935598
 H         3.937697         1.871719        -2.345692
 H         2.261243         3.970984        -1.163573
 H         1.645151         2.412713        -2.024855
 H         2.541761         1.130877         1.615127
