19
Iteration:  3759charge 0 multiplicity 1
 C        -0.021580        -0.013887        -0.132688
 C         1.398722         0.107229        -0.154970
 O         2.206510        -1.139007         0.033373
 C         2.581602        -0.366037        -1.067930
 C         3.336863         0.840515        -0.556513
 C         3.510108         2.025031        -1.513015
 C         2.693456         3.152183        -0.896656
 O         1.798958         2.649475         0.099017
 C         2.231889         1.292852         0.433689
 H        -0.350682        -0.291372         0.928401
 H        -0.422496         0.991825        -0.438148
 H        -0.435221        -0.736556        -0.757211
 H         2.594590        -0.923153        -2.046185
 H         4.379139         0.656328        -0.247830
 H         4.542961         2.451436        -1.609522
 H         3.106410         1.792781        -2.505289
 H         3.456273         3.673768        -0.282617
 H         2.170879         3.908798        -1.451075
 H         2.325018         1.297326         1.573129
