19
Iteration:  2490
 C        -0.045610         0.088560        -0.187954
 C         1.429969         0.090645        -0.168110
 O         2.185386        -1.145577         0.001752
 C         2.524138        -0.263299        -1.061720
 C         3.489504         0.865629        -0.437939
 C         3.583989         2.021956        -1.413048
 C         2.578296         3.082092        -1.008010
 O         1.791724         2.495049         0.063645
 C         2.267428         1.329196         0.492291
 H        -0.407643        -0.213168         0.830625
 H        -0.352986         1.179109        -0.321387
 H        -0.602558        -0.579711        -0.912646
 H         2.479970        -0.558584        -2.166334
 H         4.394994         0.672229         0.164389
 H         4.600459         2.462506        -1.444047
 H         3.242526         1.639320        -2.372042
 H         3.160473         3.970678        -0.758353
 H         1.740971         3.356087        -1.611732
 H         2.409059         1.340418         1.584159
