19
Iteration:  1677
 C        -0.038866         0.235143        -0.276087
 C         1.437052         0.108026        -0.124671
 O         2.174021        -1.069755         0.067345
 C         2.440676        -0.243877        -1.138285
 C         3.502381         0.813097        -0.537732
 C         3.707653         2.176392        -1.275970
 C         2.337629         2.802267        -1.217415
 O         1.895809         2.560557         0.250522
 C         2.329934         1.199507         0.483384
 H        -0.458858         0.161432         0.794280
 H        -0.626193         1.118932        -0.629813
 H        -0.272630        -0.712762        -0.732378
 H         2.360417        -0.753595        -2.122467
 H         4.436114         0.402406        -0.106867
 H         4.518638         2.688532        -0.726751
 H         3.985699         2.185649        -2.254658
 H         2.382169         3.930324        -1.312337
 H         1.526465         2.376926        -1.860003
 H         2.667370         1.107899         1.538153
