19
Iteration:   526charge 0 multiplicity 1
 C        -0.109533         0.270307        -0.124035
 C         1.341471         0.101323        -0.089203
 O         2.210378        -1.126360        -0.124066
 C         2.487524        -0.161505        -1.119635
 C         3.405610         0.838585        -0.522620
 C         3.680819         2.077673        -1.354673
 C         2.346532         2.814488        -1.134470
 O         2.052283         2.567023         0.229686
 C         2.323683         1.194836         0.550461
 H        -0.586264         0.053157         0.860687
 H        -0.250083         1.368416        -0.353076
 H        -0.596968        -0.384773        -0.871087
 H         2.444652        -0.551557        -2.143980
 H         4.286647         0.447511        -0.059773
 H         4.550053         2.726812        -1.119949
 H         3.837102         1.717863        -2.349039
 H         2.519664         3.905266        -1.236848
 H         1.617670         2.451209        -1.887023
 H         2.499902         1.029677         1.629659
