19
Iteration:  1768charge 0 multiplicity 1
 C        -0.032958         0.183482        -0.466749
 C         1.387506         0.015970        -0.100079
 O         2.198175        -1.119274         0.175207
 C         2.545774        -0.342910        -0.994110
 C         3.390675         0.834300        -0.578886
 C         3.593564         2.097166        -1.422269
 C         2.309509         3.043486        -1.022801
 O         2.026852         2.577025         0.279330
 C         2.326041         1.247867         0.429423
 H        -0.587259         0.030819         0.463016
 H        -0.135957         1.294552        -0.470894
 H        -0.376213        -0.365972        -1.426338
 H         2.373659        -0.885132        -1.928299
 H         4.435294         0.538631        -0.198988
 H         4.512749         2.671597        -1.260375
 H         3.565925         2.036375        -2.542172
 H         2.382456         4.155757        -1.034069
 H         1.583274         2.608916        -1.805434
 H         2.641480         1.078221         1.439869
