19
Iteration:  2053
 C         0.029666         0.262650        -0.328611
 C         1.482898         0.123138        -0.089497
 O         2.161572        -1.139981        -0.041715
 C         2.601725        -0.256756        -1.067593
 C         3.475763         0.838381        -0.418670
 C         3.503007         1.995699        -1.452284
 C         2.331255         2.999017        -1.018102
 O         1.876431         2.527732         0.183529
 C         2.357651         1.209879         0.577701
 H        -0.433253         0.556127         0.597433
 H        -0.219114         1.035619        -0.997420
 H        -0.377404        -0.740513        -0.724196
 H         2.351456        -0.723977        -2.007855
 H         4.508733         0.681699         0.006901
 H         4.568589         2.390867        -1.434262
 H         3.387347         1.524616        -2.411441
 H         2.599061         4.027577        -0.909400
 H         1.461773         2.941886        -1.801447
 H         2.396659         1.477027         1.611066
