19
Iteration:  3465charge 0 multiplicity 1
 C        -0.096141        -0.144236        -0.258854
 C         1.395128         0.049812        -0.137859
 O         2.161291        -1.046401         0.116911
 C         2.464327        -0.290015        -1.102290
 C         3.362787         0.824950        -0.570289
 C         3.595877         2.071068        -1.482145
 C         2.587316         3.113870        -0.978620
 O         1.944441         2.677670         0.264661
 C         2.353276         1.315039         0.398086
 H        -0.510898        -0.446119         0.735171
 H        -0.549494         0.857876        -0.371698
 H        -0.451602        -0.754113        -1.033432
 H         2.291453        -0.884412        -1.991022
 H         4.375490         0.507612        -0.110422
 H         4.773307         2.401566        -1.458548
 H         3.511677         1.755319        -2.546250
 H         2.927425         4.176137        -0.910561
 H         1.786073         3.236175        -1.727080
 H         2.438036         1.214218         1.528336
