19
Iteration:  1612charge 0 multiplicity 1
 C        -0.149525        -0.067781         0.001161
 C         1.415392         0.091625        -0.197655
 O         2.179075        -1.116063        -0.039108
 C         2.481273        -0.193635        -1.141785
 C         3.456701         0.865852        -0.418119
 C         3.743841         2.086425        -1.333170
 C         2.624003         3.005997        -1.049542
 O         1.831387         2.606296         0.021431
 C         2.189585         1.318709         0.417596
 H        -0.143926        -0.430686         0.986872
 H        -0.734951         0.851769        -0.031889
 H        -0.626918        -0.708979        -0.666324
 H         2.493683        -0.696634        -2.134201
 H         4.182216         0.417204         0.293876
 H         4.661078         2.688068        -1.327647
 H         3.750180         1.757837        -2.342381
 H         3.074102         3.995486        -0.746446
 H         2.044858         3.114726        -1.985027
 H         2.227280         1.327749         1.514045
