19
Iteration:  4643
 C        -0.120589        -0.026138        -0.221395
 C         1.376918         0.103642        -0.116664
 O         2.191993        -1.208851        -0.030260
 C         2.509242        -0.211501        -1.062621
 C         3.459198         0.857455        -0.491328
 C         3.534228         2.095674        -1.563290
 C         2.559967         3.182341        -1.003527
 O         1.954530         2.640275         0.258173
 C         2.275358         1.178957         0.505010
 H        -0.641649         0.017814         0.798269
 H        -0.424515         0.809345        -0.711032
 H        -0.280068        -0.966982        -0.810776
 H         2.303756        -0.624618        -2.116112
 H         4.404064         0.514664        -0.077553
 H         4.649353         2.307200        -1.393883
 H         3.210582         1.684514        -2.573285
 H         3.206247         4.042316        -0.628484
 H         1.825212         3.378379        -1.705793
 H         2.504254         1.214686         1.649279
