19
Iteration:   632charge 0 multiplicity 1
 C        -0.109871         0.103759        -0.244720
 C         1.439911         0.191405        -0.183815
 O         2.001339        -1.086325         0.010467
 C         2.495023        -0.191487        -1.065382
 C         3.557139         0.789175        -0.541811
 C         3.654508         2.057284        -1.444064
 C         2.343754         2.919564        -1.023973
 O         2.019909         2.574017         0.290023
 C         2.412152         1.254394         0.535466
 H        -0.655001         0.022681         0.668833
 H        -0.579306         0.834943        -0.802225
 H        -0.401136        -0.765274        -0.833374
 H         2.471589        -0.494802        -2.115956
 H         4.605709         0.578670        -0.266002
 H         4.550795         2.702412        -1.370323
 H         3.629370         1.643367        -2.426236
 H         2.525727         3.989037        -1.176823
 H         1.526517         2.591173        -1.789175
 H         2.708591         1.053256         1.562486
