19
Iteration:  1270charge 0 multiplicity 1
 C        -0.029058         0.212350        -0.099042
 C         1.448912         0.173380        -0.202359
 O         2.094759        -1.154749        -0.118533
 C         2.586456        -0.240451        -1.119292
 C         3.515350         0.856004        -0.445795
 C         3.663948         2.088483        -1.292524
 C         2.268546         2.771356        -1.149606
 O         1.914479         2.655643         0.218937
 C         2.314443         1.215717         0.490366
 H        -0.229726         0.028216         0.919122
 H        -0.318176         1.185951        -0.403954
 H        -0.394647        -0.597780        -0.710696
 H         2.790517        -0.618888        -2.105292
 H         4.439660         0.537822        -0.009972
 H         4.419653         2.730216        -0.841033
 H         3.897614         1.721444        -2.357436
 H         2.382255         3.852255        -1.400064
 H         1.499721         2.310791        -1.810575
 H         2.372852         1.358983         1.559171
