19
Iteration:  1410charge 0 multiplicity 1
 C        -0.066184         0.187642        -0.270569
 C         1.436583         0.082076        -0.188012
 O         2.189294        -1.188672         0.034666
 C         2.547320        -0.262270        -1.061702
 C         3.484392         0.815556        -0.464937
 C         3.657411         2.075312        -1.499763
 C         2.324740         2.932053        -1.095263
 O         1.945005         2.682944         0.273236
 C         2.262341         1.245265         0.531958
 H        -0.554317        -0.194822         0.673791
 H        -0.418741         1.252638        -0.350508
 H        -0.654162        -0.397443        -1.064089
 H         2.738413        -0.747616        -1.950969
 H         4.386594         0.635405         0.066083
 H         4.578090         2.600516        -1.258277
 H         3.642282         1.703275        -2.506784
 H         2.723721         3.944030        -1.155784
 H         1.443373         2.717411        -1.825251
 H         2.443016         1.115075         1.658477
