19
Iteration:  3677
 C        -0.135907        -0.084081        -0.075827
 C         1.415016         0.064037        -0.056433
 O         2.271319        -1.105894         0.052904
 C         2.452562        -0.288938        -1.088551
 C         3.379512         0.796071        -0.609342
 C         3.540504         2.062489        -1.494924
 C         2.813874         3.231479        -0.775241
 O         1.746838         2.554038        -0.092604
 C         2.237937         1.301217         0.436288
 H        -0.502660        -0.021768         0.876145
 H        -0.402012         0.810600        -0.544324
 H        -0.319104        -1.047348        -0.634474
 H         2.361030        -0.638380        -2.097367
 H         4.371598         0.665831        -0.240584
 H         4.611736         2.270089        -1.653862
 H         3.201558         2.088953        -2.577958
 H         3.425947         3.744052         0.011630
 H         2.331294         4.027070        -1.405245
 H         2.414482         1.382465         1.491496
