19
Iteration:  1847
 C        -0.177835         0.064861        -0.181310
 C         1.390434         0.076369        -0.074415
 O         2.183945        -1.163581        -0.072417
 C         2.476526        -0.108597        -1.113711
 C         3.434849         0.829468        -0.432002
 C         3.742782         2.093846        -1.276326
 C         2.374394         2.914831        -1.167537
 O         1.987141         2.631372         0.158553
 C         2.364057         1.245513         0.530937
 H        -0.712287        -0.010043         0.787683
 H        -0.479458         0.923413        -0.777724
 H        -0.359426        -0.887986        -0.886969
 H         2.583896        -0.365066        -2.262934
 H         4.353552         0.401119        -0.008712
 H         4.592022         2.705094        -0.947762
 H         3.870350         2.054956        -2.465719
 H         2.323615         4.010586        -1.265519
 H         1.575384         2.465651        -1.968712
 H         2.489972         1.266619         1.624170
