19
Iteration:   727
 C        -0.032632         0.150194        -0.211305
 C         1.404003         0.249679        -0.052195
 O         2.114511        -1.079572        -0.083288
 C         2.509588        -0.113491        -1.090934
 C         3.484837         0.792672        -0.492851
 C         3.658416         1.993200        -1.411906
 C         2.371619         2.851364        -1.142869
 O         1.903613         2.515542         0.241978
 C         2.396836         1.250356         0.599532
 H        -0.638554        -0.151785         0.723102
 H        -0.435392         1.217709        -0.412293
 H        -0.387551        -0.539895        -1.039681
 H         2.336110        -0.449232        -2.080447
 H         4.427856         0.293833        -0.377273
 H         4.518137         2.600899        -1.103837
 H         3.803481         1.745352        -2.521827
 H         2.739695         3.852869        -1.209763
 H         1.682246         2.704649        -1.911166
 H         2.385825         1.107680         1.659885
