19
Iteration:  1592
 C        -0.167845        -0.141611         0.017985
 C         1.312742         0.180445        -0.202993
 O         2.146719        -1.032024         0.027804
 C         2.563961        -0.226828        -1.097991
 C         3.413719         0.839799        -0.525592
 C         3.765938         2.059325        -1.351476
 C         2.614762         3.152560        -1.082477
 O         1.824698         2.538628         0.039020
 C         2.228050         1.251777         0.457085
 H        -0.209356        -0.670865         0.935334
 H        -0.524739         0.854704        -0.180504
 H        -0.468776        -0.730547        -0.873050
 H         2.712843        -0.624635        -2.083686
 H         4.301348         0.277792        -0.065229
 H         4.842704         2.319730        -1.001708
 H         3.858375         1.919641        -2.598682
 H         3.028856         4.111824        -0.691304
 H         2.056353         3.279292        -1.989915
 H         2.306581         1.221137         1.530284
