19
Iteration:  1012charge 0 multiplicity 1
 C        -0.110379         0.130580        -0.252507
 C         1.366401         0.176910        -0.084840
 O         2.216336        -0.990076         0.045030
 C         2.433141        -0.120904        -1.076711
 C         3.501332         0.738992        -0.626172
 C         3.709871         2.064611        -1.368025
 C         2.337644         2.848476        -1.122721
 O         1.947913         2.528910         0.191867
 C         2.388219         1.225665         0.584458
 H        -0.603163        -0.645772         0.284576
 H        -0.603037         1.041550        -0.105160
 H        -0.361951        -0.259357        -1.242343
 H         2.391764        -0.650848        -2.072853
 H         4.419825         0.229991        -0.251817
 H         4.468437         2.524592        -0.706693
 H         3.995030         2.090060        -2.405234
 H         2.489953         3.977751        -1.195312
 H         1.408961         2.496700        -1.755075
 H         2.489844         1.251159         1.651008
