19
Iteration:  1583
 C        -0.111755        -0.135557        -0.053773
 C         1.400847         0.150940        -0.192847
 O         2.134352        -1.054972         0.065368
 C         2.474604        -0.253946        -1.111053
 C         3.414384         0.822153        -0.571469
 C         3.741070         2.129434        -1.376862
 C         2.651989         3.043446        -1.027235
 O         1.828086         2.571399         0.029867
 C         2.221377         1.317845         0.472766
 H        -0.331040        -0.578572         0.966187
 H        -0.735890         0.807464        -0.055265
 H        -0.511014        -0.780836        -0.936732
 H         2.560262        -0.767547        -2.012839
 H         4.283938         0.370027        -0.050708
 H         4.659435         2.641035        -0.986783
 H         3.948910         2.022972        -2.524802
 H         3.097070         3.953038        -0.644097
 H         2.052108         3.304798        -1.897960
 H         2.293814         1.320125         1.567415
