19
Iteration:  4263charge 0 multiplicity 1
 C        -0.203810         0.096775        -0.097107
 C         1.389441         0.083271        -0.136734
 O         2.183276        -1.117041        -0.175041
 C         2.497280        -0.158922        -1.182271
 C         3.502071         0.837309        -0.501922
 C         3.731489         2.156530        -1.219670
 C         2.311781         2.800164        -1.163119
 O         1.981664         2.621080         0.255637
 C         2.404883         1.240373         0.517957
 H        -0.594924        -0.036160         0.946389
 H        -0.538116         0.974087        -0.471893
 H        -0.588948        -0.619649        -0.817449
 H         2.526535        -0.368190        -2.232575
 H         4.415218         0.336459        -0.164966
 H         4.322747         2.926565        -0.783882
 H         4.088605         1.954245        -2.207855
 H         2.208536         3.840500        -1.353420
 H         1.505089         2.434920        -1.734693
 H         2.657645         1.270577         1.552342
