19
Iteration:  1889charge 0 multiplicity 1
 C        -0.054223         0.208729        -0.091313
 C         1.423919         0.141496        -0.154441
 O         2.150678        -1.083568         0.021722
 C         2.501689        -0.162612        -1.225915
 C         3.529350         0.787561        -0.544802
 C         3.716926         2.190508        -1.190588
 C         2.335819         2.876137        -1.106594
 O         1.805764         2.495579         0.097378
 C         2.362140         1.190818         0.446393
 H        -0.464193        -0.081057         0.905955
 H        -0.481433         1.213600        -0.221761
 H        -0.472623        -0.460531        -0.992268
 H         2.591103        -0.960990        -2.036887
 H         4.429009         0.236870        -0.114200
 H         4.467069         2.602783        -0.587153
 H         4.237130         2.021015        -2.094138
 H         2.452728         3.918700        -1.319178
 H         1.840894         2.427685        -1.928888
 H         2.537772         1.145283         1.514989
