19
Iteration:  2530charge 0 multiplicity 1
 C        -0.048953        -0.008306        -0.291677
 C         1.434387         0.096593        -0.166711
 O         2.185124        -1.123256         0.195874
 C         2.505871        -0.304483        -1.032234
 C         3.415390         0.875853        -0.515113
 C         3.526754         2.037868        -1.546864
 C         2.666458         3.192685        -0.830870
 O         1.800998         2.533665         0.049245
 C         2.294400         1.308459         0.395294
 H        -0.368583        -0.498714         0.591407
 H        -0.362190         0.971371        -0.293277
 H        -0.531747        -0.614840        -1.071690
 H         2.271038        -0.870271        -1.970560
 H         4.357744         0.502101        -0.148798
 H         4.507843         2.394588        -1.509736
 H         3.147380         1.757770        -2.647606
 H         3.168531         3.923430        -0.134886
 H         2.208446         3.684504        -1.708417
 H         2.521826         1.243614         1.460522
