19
Iteration:  4917
 C        -0.143695         0.011349        -0.100326
 C         1.440923         0.066384        -0.060537
 O         2.139481        -1.197896        -0.060116
 C         2.451094        -0.299294        -1.122800
 C         3.422101         0.920054        -0.598152
 C         3.696978         2.151778        -1.445769
 C         2.582966         3.115621        -0.957735
 O         1.835799         2.528595         0.115232
 C         2.356423         1.308965         0.504928
 H        -0.545357        -0.645790         0.844396
 H        -0.647229         0.933426        -0.222802
 H        -0.402999        -0.600118        -0.950619
 H         2.239351        -0.514824        -2.156941
 H         4.376376         0.526590        -0.284228
 H         4.680338         2.561269        -1.101724
 H         3.650203         1.895098        -2.445192
 H         2.954335         3.967569        -0.394427
 H         1.913786         3.411074        -1.768426
 H         2.724835         1.316669         1.586942
