19
Iteration:  4793
 C        -0.157468        -0.182529        -0.215402
 C         1.378801         0.047704        -0.143663
 O         2.281531        -1.022244         0.152073
 C         2.459728        -0.378620        -1.061105
 C         3.292844         0.873015        -0.667351
 C         3.482936         2.112770        -1.521039
 C         2.877268         3.300975        -0.688005
 O         1.868727         2.615784         0.071820
 C         2.212742         1.223579         0.281322
 H        -0.459325        -0.326806         0.803634
 H        -0.587254         0.844781        -0.572607
 H        -0.456543        -1.104358        -0.804928
 H         2.596088        -1.122689        -1.928743
 H         4.189031         0.404907        -0.237431
 H         4.501120         2.273241        -1.750113
 H         3.018868         2.029403        -2.501673
 H         3.732102         3.586966        -0.167104
 H         2.356830         4.315220        -0.945769
 H         2.372685         1.090359         1.331165
