19
Iteration:  1737
 C         0.009426         0.237209        -0.414158
 C         1.449860         0.209171        -0.096876
 O         2.102506        -1.059887         0.011666
 C         2.607826        -0.232679        -0.972819
 C         3.519610         0.789782        -0.494025
 C         3.570538         1.978691        -1.480638
 C         2.236244         2.906530        -1.055398
 O         1.951247         2.525484         0.296367
 C         2.361350         1.251621         0.574833
 H        -0.419890        -0.158041         0.439041
 H        -0.328679         1.139029        -0.787649
 H        -0.277824        -0.557776        -1.133428
 H         2.585768        -0.632309        -2.027290
 H         4.569374         0.606363        -0.245061
 H         4.517200         2.496844        -1.298079
 H         3.269667         1.753922        -2.591264
 H         2.282784         3.968972        -1.190371
 H         1.500744         2.548473        -1.813846
 H         2.617738         1.147292         1.631242
