19
Iteration:  2127charge 0 multiplicity 1
 C        -0.114341        -0.044184        -0.231811
 C         1.374080         0.145143        -0.135048
 O         2.123896        -1.046354         0.000583
 C         2.484185        -0.201021        -1.169524
 C         3.519299         0.808295        -0.538701
 C         3.721686         2.152321        -1.322607
 C         2.329390         2.823593        -1.159125
 O         2.070827         2.682147         0.240125
 C         2.247137         1.277474         0.608271
 H        -0.296307        -0.563044         0.705848
 H        -0.656954         0.900640        -0.179647
 H        -0.391122        -0.673553        -1.116653
 H         2.339497        -0.511550        -2.228269
 H         4.441580         0.206428        -0.232624
 H         4.682779         2.739731        -1.003859
 H         3.961201         1.951200        -2.368809
 H         2.376657         3.923776        -1.300245
 H         1.598204         2.418848        -1.819037
 H         2.328463         1.348168         1.708021
