19
Iteration:  4328
 C        -0.090732         0.075473        -0.172147
 C         1.404306         0.038792        -0.118295
 O         2.202261        -1.204041        -0.008874
 C         2.430320        -0.203933        -1.099701
 C         3.421912         0.880098        -0.579694
 C         3.713157         2.199285        -1.379683
 C         2.449956         3.041006        -1.013969
 O         1.909910         2.525817         0.200301
 C         2.307052         1.261932         0.475794
 H        -0.563271        -0.391734         0.767803
 H        -0.364714         1.033132        -0.368261
 H        -0.389989        -0.542916        -1.033396
 H         2.234648        -0.578815        -2.069553
 H         4.392325         0.412199        -0.367458
 H         4.634989         2.535578        -0.976875
 H         3.854223         1.996594        -2.405061
 H         2.629603         4.123105        -0.869895
 H         1.741250         3.046908        -1.922044
 H         2.637148         1.146496         1.466655
