19
Iteration:  4435charge 0 multiplicity 1
 C        -0.054240        -0.044684        -0.374309
 C         1.403521         0.146735        -0.175495
 O         2.157281        -1.089461         0.020341
 C         2.461880        -0.248472        -1.068068
 C         3.461941         0.792665        -0.602773
 C         3.521915         2.090892        -1.471199
 C         2.416642         3.079364        -0.968021
 O         2.077277         2.634115         0.383272
 C         2.304258         1.244843         0.532024
 H        -0.600264        -0.069499         0.616048
 H        -0.514715         0.761574        -0.967662
 H        -0.178988        -0.949809        -0.957259
 H         2.446130        -0.632099        -2.060073
 H         4.420765         0.514102        -0.232312
 H         4.577266         2.418563        -1.371175
 H         3.318775         1.920030        -2.541783
 H         2.729474         4.106524        -0.824166
 H         1.537725         2.936095        -1.510707
 H         2.557924         0.993542         1.564485
