19
Iteration:  1260
 C        -0.019478         0.252344        -0.172005
 C         1.476972         0.149837        -0.156192
 O         2.165299        -1.183757        -0.098856
 C         2.548924        -0.247523        -1.100323
 C         3.559298         0.856702        -0.465147
 C         3.675320         2.052560        -1.342084
 C         2.275986         2.809236        -1.110027
 O         1.917918         2.567827         0.200685
 C         2.261634         1.342655         0.566512
 H        -0.466674         0.069728         0.760428
 H        -0.356575         1.219475        -0.402245
 H        -0.656844        -0.269760        -0.864862
 H         2.383254        -0.508443        -2.110171
 H         4.476939         0.488214        -0.047487
 H         4.499884         2.684911        -1.037845
 H         3.861491         1.908779        -2.447735
 H         1.992797         3.887803        -1.343306
 H         1.549224         2.152173        -1.745892
 H         2.282056         1.074494         1.591169
