19
Iteration:  1398charge 0 multiplicity 1
 C        -0.101614         0.155836        -0.179375
 C         1.398936         0.119019        -0.243720
 O         2.210672        -1.110730         0.009392
 C         2.638660        -0.345576        -1.079027
 C         3.426169         0.878934        -0.449250
 C         3.607261         2.000519        -1.329468
 C         2.392679         3.013704        -1.096555
 O         1.955554         2.635409         0.207978
 C         2.259000         1.220430         0.450579
 H        -0.368038        -0.193056         0.872469
 H        -0.279662         1.283921        -0.214726
 H        -0.564407        -0.412116        -1.048508
 H         2.620501        -0.736231        -2.069712
 H         4.296106         0.388007        -0.039399
 H         4.569475         2.458085        -1.452727
 H         3.439134         1.660558        -2.298768
 H         2.450108         4.101225        -1.126425
 H         1.559141         2.788235        -1.920208
 H         2.403113         1.197645         1.574279
