19
Iteration:  1573
 C        -0.051693        -0.049885        -0.155716
 C         1.354242         0.083181        -0.091841
 O         2.173059        -1.087900         0.085118
 C         2.395488        -0.269075        -1.102034
 C         3.442067         0.863053        -0.545151
 C         3.782727         2.093432        -1.342416
 C         2.615987         3.110877        -1.010163
 O         1.808006         2.618183         0.033759
 C         2.254078         1.268906         0.364649
 H        -0.257817        -0.672891         0.836160
 H        -0.743703         0.826232        -0.081995
 H        -0.409298        -0.961822        -0.800115
 H         2.153914        -0.776206        -1.983862
 H         4.391398         0.501665        -0.136587
 H         4.755033         2.435050        -0.954136
 H         3.756650         1.829823        -2.438780
 H         3.003271         4.083516        -0.775695
 H         1.853204         3.299055        -1.792234
 H         2.514704         1.196260         1.440910
