19
Iteration:   238charge 0 multiplicity 1
 C        -0.134111         0.142424        -0.115688
 C         1.348621         0.132712        -0.306059
 O         2.081957        -1.054848         0.052049
 C         2.525062        -0.291367        -1.126046
 C         3.547936         0.718959        -0.605472
 C         3.715334         2.113680        -1.350706
 C         2.401613         2.948674        -1.059697
 O         2.064057         2.665605         0.307502
 C         2.244557         1.183845         0.388989
 H        -0.246954        -0.285164         0.909807
 H        -0.625592         1.104044         0.013563
 H        -0.804276        -0.486764        -0.709640
 H         2.531018        -0.609888        -2.099716
 H         4.547493         0.341315        -0.279651
 H         4.577832         2.651889        -0.984268
 H         3.706645         2.127144        -2.471494
 H         2.399818         4.001847        -1.246079
 H         1.648589         2.428661        -1.657812
 H         2.379031         1.016222         1.498223
