19
Iteration:   499
 C        -0.045987         0.155667        -0.215440
 C         1.419308         0.229323         0.033511
 O         2.056818        -1.081499        -0.107632
 C         2.376183        -0.097218        -1.142992
 C         3.488500         0.761663        -0.602537
 C         3.727128         2.080631        -1.306954
 C         2.365000         2.799343        -1.108847
 O         1.936608         2.541318         0.205632
 C         2.480928         1.218557         0.594206
 H        -0.588454         0.136190         0.735718
 H        -0.400615         1.004909        -0.775517
 H         0.010855        -0.815061        -0.682065
 H         1.945673        -0.325028        -2.110803
 H         4.429531         0.232090        -0.226468
 H         4.547780         2.725955        -0.994164
 H         3.790991         1.757035        -2.395483
 H         2.513596         3.876190        -1.240814
 H         1.626589         2.589494        -1.914289
 H         2.728760         1.131650         1.656725
