19
Iteration:  2578charge 0 multiplicity 1
 C        -0.078311        -0.076741        -0.270815
 C         1.402498         0.066938        -0.165124
 O         2.241443        -1.099699         0.221904
 C         2.544817        -0.273087        -0.988231
 C         3.376917         0.900546        -0.615425
 C         3.383707         2.086628        -1.618639
 C         2.936006         3.190931        -0.694129
 O         1.731314         2.576363        -0.053846
 C         2.172664         1.297335         0.423022
 H        -0.491543        -0.298099         0.702318
 H        -0.558764         0.762178        -0.869885
 H        -0.288823        -1.054142        -0.666845
 H         2.711381        -0.715856        -1.964078
 H         4.394541         0.659485        -0.187740
 H         4.477257         2.070864        -1.942349
 H         2.751640         1.673289        -2.381194
 H         3.648726         3.359723         0.147280
 H         2.637083         4.094790        -1.147755
 H         2.518361         0.962538         1.399359
