19
Iteration:  4305
 C        -0.088233        -0.020776        -0.105167
 C         1.441050         0.232330        -0.186905
 O         2.123778        -1.000871        -0.132488
 C         2.488312        -0.154011        -1.232053
 C         3.509771         0.787334        -0.469499
 C         3.643089         2.049315        -1.274564
 C         2.365733         2.894164        -1.095188
 O         1.923536         2.621903         0.251711
 C         2.371499         1.227780         0.517637
 H        -0.234863        -0.451897         0.969292
 H        -0.692177         0.819787        -0.332084
 H        -0.308747        -0.829766        -0.757206
 H         2.464198        -0.654618        -2.208834
 H         4.379576         0.264253        -0.056271
 H         4.440729         2.582960        -0.777567
 H         3.916171         1.912807        -2.284603
 H         2.655584         3.958263        -1.274480
 H         1.596487         2.717361        -1.936272
 H         2.483757         1.006187         1.526099
