19
Iteration:   255charge 0 multiplicity 1
 C        -0.002676         0.151479        -0.107829
 C         1.415907         0.203576        -0.233622
 O         1.974063        -1.118896         0.005556
 C         2.490283        -0.329458        -1.155725
 C         3.404851         0.840666        -0.529130
 C         3.646087         2.154357        -1.358712
 C         2.360313         2.962293        -1.118398
 O         2.100140         2.544500         0.236214
 C         2.374773         1.206276         0.472130
 H        -0.217933        -0.127497         0.922629
 H        -0.402697         1.151688        -0.364671
 H        -0.372698        -0.553696        -0.865146
 H         2.514845        -1.038827        -2.074569
 H         4.359197         0.477400        -0.033818
 H         4.405348         2.745006        -0.783169
 H         3.941659         1.949083        -2.413778
 H         2.601024         4.045776        -0.948331
 H         1.477731         2.751095        -1.799490
 H         2.464102         0.965296         1.494166
