19
Iteration:  2850charge 0 multiplicity 1
 C        -0.063140        -0.056775        -0.254106
 C         1.416579         0.097180        -0.134912
 O         2.229392        -1.041505         0.223798
 C         2.534732        -0.391504        -1.048609
 C         3.339867         0.851537        -0.697375
 C         3.419880         2.137822        -1.587010
 C         2.907507         3.176171        -0.656767
 O         1.688904         2.525331         0.002823
 C         2.270300         1.283491         0.417747
 H        -0.582884         0.237837         0.680931
 H        -0.478742         0.608841        -1.172695
 H        -0.297635        -1.076138        -0.576579
 H         2.430770        -0.871761        -1.987903
 H         4.410483         0.628526        -0.247448
 H         4.457108         2.221145        -1.953778
 H         2.858192         1.930232        -2.540146
 H         3.559368         3.574673         0.190984
 H         2.573353         3.990090        -1.335183
 H         2.692517         1.285252         1.478986
