19
Iteration:   745charge 0 multiplicity 1
 C        -0.062619         0.179423        -0.130517
 C         1.353516         0.118688        -0.155203
 O         2.145830        -1.158565        -0.057178
 C         2.501553        -0.217890        -1.166905
 C         3.459136         0.823335        -0.454067
 C         3.659873         2.055796        -1.334821
 C         2.390232         2.872266        -1.120082
 O         2.024216         2.661745         0.209279
 C         2.299545         1.248645         0.494175
 H        -0.339694        -0.411896         0.687166
 H        -0.496411         1.183166        -0.067251
 H        -0.475698        -0.248518        -1.028777
 H         2.422655        -0.524478        -2.257348
 H         4.223470         0.418990         0.250573
 H         4.563442         2.633658        -1.164639
 H         3.768588         1.730027        -2.381302
 H         2.426977         4.037927        -1.197495
 H         1.605794         2.353104        -1.834861
 H         2.602326         1.259930         1.598497
