19
Iteration:  1082charge 0 multiplicity 1
 C         0.012379         0.176591        -0.097320
 C         1.440639         0.185687        -0.292839
 O         2.130636        -1.041020         0.029998
 C         2.527311        -0.132698        -1.183351
 C         3.463086         0.801703        -0.487580
 C         3.741003         2.077859        -1.302892
 C         2.327287         2.840273        -1.100307
 O         1.859895         2.501624         0.192452
 C         2.274148         1.193191         0.441693
 H        -0.130044         0.274234         0.996728
 H        -0.446200         1.099951        -0.524872
 H        -0.509778        -0.733372        -0.283023
 H         2.542726        -0.629506        -2.132085
 H         4.376239         0.355280        -0.083277
 H         4.463513         2.699163        -0.692955
 H         4.066085         1.925653        -2.373843
 H         2.458782         3.891667        -1.123727
 H         1.741050         2.448438        -1.997947
 H         2.388648         1.033357         1.551955
