19
Iteration:  1007
 C        -0.134429         0.119461        -0.268755
 C         1.377315         0.155465        -0.122953
 O         2.178993        -0.998582         0.087355
 C         2.455852        -0.130658        -1.066314
 C         3.519627         0.783175        -0.638763
 C         3.718915         2.082409        -1.357434
 C         2.321430         2.849667        -1.105567
 O         1.947601         2.505132         0.228894
 C         2.380678         1.229511         0.525607
 H        -0.487743        -0.717131         0.443579
 H        -0.542498         1.200576        -0.051954
 H        -0.467464        -0.214946        -1.298724
 H         2.299136        -0.760743        -1.945798
 H         4.452003         0.259533        -0.417209
 H         4.469607         2.676021        -0.814152
 H         4.057062         2.073161        -2.429602
 H         2.610094         3.905676        -1.325675
 H         1.566129         2.616572        -1.819666
 H         2.580228         1.235235         1.645269
