19
Iteration:  1283
 C        -0.038594         0.116343        -0.068409
 C         1.429330         0.173808        -0.258322
 O         2.054061        -1.051381        -0.091808
 C         2.633223        -0.182616        -1.109536
 C         3.474369         0.791478        -0.400347
 C         3.621516         2.125214        -1.277336
 C         2.336328         2.836015        -1.275610
 O         1.953604         2.594510         0.195195
 C         2.358327         1.195721         0.547986
 H        -0.197042         0.056326         0.976098
 H        -0.691457         0.866575        -0.388924
 H        -0.600897        -0.723063        -0.474827
 H         2.610967        -0.578852        -2.054440
 H         4.355696         0.356186         0.088986
 H         4.324099         2.803759        -0.809683
 H         4.015568         2.073074        -2.308782
 H         2.448361         3.984248        -1.399649
 H         1.505665         2.489222        -2.034439
 H         2.566763         0.759856         1.475470
