19
Iteration:   165
 C        -0.081501         0.259304        -0.151399
 C         1.429129         0.163515        -0.101541
 O         2.079812        -1.167223        -0.062586
 C         2.483560        -0.223821        -1.069450
 C         3.481843         0.837596        -0.526433
 C         3.658205         2.105333        -1.355296
 C         2.401171         2.947199        -1.138172
 O         1.934977         2.495256         0.205319
 C         2.435431         1.180364         0.511140
 H        -0.642823         0.115038         0.772089
 H        -0.416299         1.260401        -0.466938
 H        -0.539150        -0.428718        -0.869324
 H         2.290105        -0.711196        -2.103211
 H         4.408711         0.539092        -0.137241
 H         4.634900         2.551494        -1.027278
 H         3.731247         1.796361        -2.371525
 H         2.484499         4.070541        -1.173250
 H         1.661911         2.573181        -1.877550
 H         2.690909         1.191041         1.575307
