19
Iteration:  3224
 C        -0.087431         0.168909        -0.209018
 C         1.367098         0.127845        -0.182814
 O         2.211877        -1.098119         0.078672
 C         2.556179        -0.276401        -1.064511
 C         3.504783         0.825461        -0.526090
 C         3.648667         2.105832        -1.428058
 C         2.302082         2.994410        -1.027354
 O         1.938309         2.498082         0.201651
 C         2.328093         1.245442         0.416729
 H        -0.483402         0.164987         0.819279
 H        -0.528660         0.933555        -0.777679
 H        -0.564905        -0.713461        -0.723028
 H         2.652068        -0.793244        -2.055506
 H         4.579998         0.541161        -0.260645
 H         4.627957         2.622096        -1.162647
 H         3.627140         1.864651        -2.465793
 H         2.677977         4.036145        -0.866382
 H         1.378034         2.949718        -1.630102
 H         2.433189         1.139201         1.523211
