19
Iteration:  3727charge 0 multiplicity 1
 C        -0.131087         0.160547        -0.113244
 C         1.456583         0.075216        -0.113847
 O         2.217269        -1.108758         0.094217
 C         2.540549        -0.267435        -1.086628
 C         3.461948         0.843275        -0.587142
 C         3.517861         2.155180        -1.454706
 C         2.650352         3.138980        -0.795323
 O         1.718061         2.396942        -0.106043
 C         2.339908         1.205366         0.421966
 H        -0.472696         0.272572         1.029605
 H        -0.311276         1.205548        -0.512424
 H        -0.490934        -0.685119        -0.631422
 H         2.594852        -1.085157        -1.853498
 H         4.460995         0.309987        -0.430282
 H         4.493255         2.544327        -1.872171
 H         3.029770         1.804880        -2.353016
 H         3.252462         3.622661        -0.011732
 H         2.122390         3.872712        -1.371496
 H         2.549530         1.231190         1.562751
