19
Iteration:  3752charge 0 multiplicity 1
 C        -0.024605         0.053426        -0.124800
 C         1.460761         0.079474        -0.159998
 O         2.192319        -1.122876         0.044220
 C         2.617758        -0.346020        -1.051386
 C         3.361082         0.870699        -0.558120
 C         3.497006         2.028701        -1.568368
 C         2.717774         3.160434        -0.832002
 O         1.761161         2.580913         0.080474
 C         2.181020         1.278345         0.393904
 H        -0.238146        -0.107651         0.982808
 H        -0.334410         1.048824        -0.325559
 H        -0.468605        -0.844336        -0.750059
 H         2.289562        -0.811264        -1.954214
 H         4.356995         0.523764        -0.160110
 H         4.570377         2.262761        -1.537832
 H         3.263997         1.794339        -2.574567
 H         3.393078         3.785411        -0.234622
 H         2.037462         3.783018        -1.474834
 H         2.371619         1.179830         1.465970
