19
Iteration:  4515
 C        -0.047074         0.290133        -0.195236
 C         1.473137         0.193241        -0.084354
 O         2.147814        -1.128694        -0.188887
 C         2.567672        -0.156860        -1.093607
 C         3.603359         0.824357        -0.457020
 C         3.597066         2.108523        -1.400267
 C         2.283226         2.788801        -1.040738
 O         1.846848         2.456613         0.195175
 C         2.409749         1.202775         0.628488
 H        -0.578578        -0.018869         0.805981
 H        -0.313570         1.321909        -0.403260
 H        -0.660036        -0.353338        -0.899819
 H         2.510700        -0.204878        -2.236256
 H         4.571559         0.426799        -0.010226
 H         4.527827         2.628406        -1.364425
 H         3.615187         1.754889        -2.434630
 H         2.173031         3.865708        -1.220285
 H         1.415669         2.617387        -1.694346
 H         2.416789         1.141704         1.698970
