19
Iteration:  1894charge 0 multiplicity 1
 C        -0.092414         0.208565        -0.089991
 C         1.439522         0.110365        -0.139255
 O         2.147650        -1.069739        -0.020105
 C         2.521993        -0.199436        -1.185589
 C         3.506116         0.802968        -0.542100
 C         3.718268         2.201423        -1.181529
 C         2.382615         2.859560        -1.156699
 O         1.814181         2.491056         0.127797
 C         2.323148         1.177723         0.448595
 H        -0.391339        -0.189393         0.883259
 H        -0.301337         1.288801        -0.262688
 H        -0.529365        -0.339227        -0.854109
 H         2.602759        -0.925343        -1.939758
 H         4.450954         0.450804        -0.201309
 H         4.514107         2.867033        -0.627829
 H         4.223636         1.938071        -2.213721
 H         2.516849         3.982352        -1.226233
 H         1.655130         2.505399        -2.048979
 H         2.505594         1.188792         1.552358
