19
Iteration:  3430
 C        -0.198228         0.032063        -0.147684
 C         1.370898         0.083180        -0.241304
 O         2.157104        -1.037708         0.036292
 C         2.525247        -0.280222        -1.105364
 C         3.482969         0.843662        -0.534171
 C         3.697852         2.138090        -1.388564
 C         2.403896         2.950876        -1.096956
 O         1.970858         2.607227         0.243055
 C         2.378984         1.284551         0.455654
 H        -0.403362        -0.423814         0.861852
 H        -0.548817         1.045641        -0.189087
 H        -0.712621        -0.682674        -0.853882
 H         2.550983        -0.764495        -2.057290
 H         4.419513         0.351183        -0.199077
 H         4.581242         2.701464        -0.923008
 H         3.817943         1.915216        -2.459875
 H         2.544954         4.046653        -1.118586
 H         1.598844         2.521243        -1.724609
 H         2.401246         1.002847         1.523911
