19
Iteration:  4968
 C        -0.118082         0.033154        -0.155885
 C         1.360905         0.183039        -0.219552
 O         2.163311        -1.070011        -0.045131
 C         2.479690        -0.212777        -1.125584
 C         3.456568         0.835087        -0.567925
 C         3.641048         2.113137        -1.391233
 C         2.383439         2.902506        -1.061519
 O         2.049086         2.624447         0.350604
 C         2.348427         1.204335         0.475993
 H        -0.454536        -0.264475         0.765582
 H        -0.538203         1.012107        -0.389979
 H        -0.479306        -0.672231        -0.959260
 H         2.752210        -0.469929        -2.125961
 H         4.359292         0.378652        -0.123691
 H         4.530438         2.641630        -1.017512
 H         3.684985         1.895220        -2.510801
 H         2.339714         4.034362        -1.158234
 H         1.525434         2.436867        -1.655500
 H         2.495922         0.885660         1.469835
