19
Iteration:  3566
 C         0.054296         0.142183        -0.269635
 C         1.467548         0.085965        -0.137169
 O         2.202212        -1.111494         0.206632
 C         2.556654        -0.364523        -1.001919
 C         3.518104         0.788845        -0.654958
 C         3.328924         2.032524        -1.607827
 C         2.723806         3.195930        -0.715137
 O         1.677405         2.506266        -0.009798
 C         2.277129         1.261059         0.476127
 H        -0.524094         0.197246         0.598264
 H        -0.183970         1.102033        -0.732529
 H        -0.402955        -0.663894        -0.800343
 H         2.405366        -0.886542        -2.022524
 H         4.556786         0.703764        -0.270540
 H         4.279152         2.589369        -2.040232
 H         2.699904         1.812779        -2.523759
 H         3.489988         3.632905        -0.024973
 H         2.162084         3.956021        -1.254359
 H         2.553861         0.973571         1.479044
