19
Iteration:  1971charge 0 multiplicity 1
 C        -0.152550        -0.002180        -0.364378
 C         1.403882         0.163675        -0.150127
 O         2.123639        -1.023915         0.090453
 C         2.510393        -0.265612        -1.063835
 C         3.502573         0.798876        -0.558944
 C         3.633957         2.207383        -1.361814
 C         2.348780         2.887383        -1.107429
 O         2.058749         2.617511         0.314065
 C         2.351738         1.237911         0.507432
 H        -0.716134        -0.431080         0.503867
 H        -0.380523         1.014992        -0.757936
 H        -0.297051        -0.660810        -1.139101
 H         2.310638        -0.813994        -1.953677
 H         4.410877         0.392524        -0.143077
 H         4.611342         2.733057        -1.098980
 H         3.580000         1.826204        -2.451591
 H         2.427569         3.991274        -1.380992
 H         1.586560         2.412893        -1.818244
 H         2.601601         1.161138         1.598232
