19
Iteration:  1207charge 0 multiplicity 1
 C         0.023842         0.233683        -0.381266
 C         1.478836         0.172106        -0.153413
 O         2.086439        -1.173864         0.107247
 C         2.487191        -0.349046        -1.024738
 C         3.529808         0.845129        -0.584870
 C         3.595228         2.162212        -1.418741
 C         2.296304         2.878955        -1.063631
 O         1.922885         2.659782         0.299829
 C         2.405194         1.183947         0.534357
 H        -0.479341        -0.421749         0.395413
 H        -0.484852         1.198820        -0.199203
 H        -0.269538        -0.312005        -1.360039
 H         2.462222        -0.810178        -1.989952
 H         4.551418         0.452434        -0.423002
 H         4.398713         2.823193        -1.195816
 H         3.694955         1.930201        -2.461729
 H         2.370220         3.996490        -1.348922
 H         1.486560         2.435764        -1.720974
 H         2.558335         0.856181         1.541170
