19
Iteration:  3936
 C        -0.028614        -0.140515        -0.160875
 C         1.409964         0.160646        -0.137739
 O         2.167601        -1.054686         0.053309
 C         2.430790        -0.280652        -1.094092
 C         3.384190         0.832573        -0.585381
 C         3.574602         2.073756        -1.413586
 C         2.663801         3.127868        -0.914078
 O         1.905937         2.592600         0.104665
 C         2.283493         1.314735         0.388125
 H        -0.235564        -0.381127         0.911554
 H        -0.594072         0.722481        -0.238213
 H        -0.396090        -0.900786        -0.822927
 H         2.294833        -0.686135        -2.117454
 H         4.232139         0.369320        -0.071165
 H         4.682977         2.324678        -1.501802
 H         3.138023         1.781728        -2.397557
 H         2.953670         4.100349        -0.434065
 H         1.989568         3.251579        -1.739363
 H         2.373793         1.201389         1.520543
