19
Iteration:  2437
 C        -0.077017         0.107890        -0.177853
 C         1.367228         0.099318        -0.094152
 O         2.188121        -1.065547         0.026627
 C         2.429998        -0.256123        -1.109943
 C         3.442282         0.833373        -0.570702
 C         3.737212         2.186941        -1.330552
 C         2.440540         2.970617        -1.123055
 O         1.943747         2.560295         0.174015
 C         2.275168         1.185556         0.482548
 H        -0.721020        -0.085372         0.732141
 H        -0.448846         0.965620        -0.849292
 H        -0.235052        -0.842369        -0.745716
 H         2.533323        -0.723484        -2.125228
 H         4.409103         0.502119        -0.133717
 H         4.566494         2.547051        -0.616779
 H         4.085174         2.020614        -2.325276
 H         2.456760         4.076031        -1.277685
 H         1.590965         2.519847        -1.739949
 H         2.501653         1.021949         1.586277
