19
Iteration:    70
 C        -0.157574         0.182491        -0.321159
 C         1.348119         0.206269         0.019210
 O         2.297177        -1.084179        -0.061101
 C         2.340602        -0.196147        -1.063787
 C         3.511723         0.750218        -0.580520
 C         3.651747         1.950755        -1.459479
 C         2.454649         2.879369        -0.999201
 O         1.948936         2.601064         0.289980
 C         2.373414         1.291073         0.521592
 H        -0.769208        -0.016035         0.563279
 H        -0.496907         1.226010        -0.571227
 H        -0.521008        -0.529744        -1.091772
 H         2.075784        -0.543610        -2.166188
 H         4.472105         0.220051        -0.126728
 H         4.651189         2.459994        -1.244360
 H         3.622829         1.789238        -2.547403
 H         2.715544         3.977687        -1.054369
 H         1.652986         2.667329        -1.720066
 H         2.626761         1.156917         1.534403
