19
Iteration:  2211
 C        -0.124410         0.237679        -0.167825
 C         1.420175         0.073437        -0.156916
 O         2.243257        -1.122563         0.019267
 C         2.431698        -0.325671        -1.105120
 C         3.547894         0.801212        -0.624102
 C         3.734280         2.193615        -1.259426
 C         2.365415         2.935456        -1.061777
 O         1.824207         2.543623         0.190569
 C         2.326299         1.164455         0.427301
 H        -0.575360         0.387637         0.857511
 H        -0.246733         1.334685        -0.555285
 H        -0.677305        -0.476990        -0.758741
 H         2.647464        -0.819097        -2.068145
 H         4.500916         0.410462        -0.271703
 H         4.444345         2.570685        -0.607621
 H         3.982191         2.296755        -2.325341
 H         2.407472         4.080319        -1.154576
 H         1.706416         2.597922        -1.938166
 H         2.547377         1.353989         1.468764
