19
Iteration:  4451
 C        -0.109515        -0.029613        -0.394619
 C         1.376511         0.172676        -0.154985
 O         2.116777        -0.987146         0.152459
 C         2.521680        -0.226931        -1.145737
 C         3.408620         0.898744        -0.641220
 C         3.591519         2.174559        -1.485949
 C         2.378399         2.931685        -0.931923
 O         2.113829         2.509367         0.412710
 C         2.386124         1.170617         0.438548
 H        -0.674117        -0.168771         0.564195
 H        -0.498355         0.879576        -0.908616
 H        -0.287067        -0.974268        -0.993354
 H         2.349226        -0.848876        -2.087307
 H         4.399495         0.453104        -0.292544
 H         4.379013         2.808297        -1.123094
 H         3.647141         1.983513        -2.573653
 H         2.657180         3.997402        -1.055836
 H         1.444263         2.848573        -1.670810
 H         2.494130         1.014398         1.532727
