19
Iteration:  4480
 C        -0.086371         0.122110        -0.332594
 C         1.464005         0.158100        -0.187817
 O         2.158847        -1.112800         0.020034
 C         2.539600        -0.337629        -1.117316
 C         3.447439         0.790740        -0.622393
 C         3.573628         2.171623        -1.381831
 C         2.241492         2.895255        -0.979980
 O         2.082041         2.640394         0.360566
 C         2.367273         1.227380         0.479825
 H        -0.552314         0.073339         0.734767
 H        -0.388075         1.064710        -0.643195
 H        -0.443898        -0.621532        -1.091245
 H         2.400944        -0.701917        -2.125136
 H         4.407776         0.438896        -0.245554
 H         4.319543         2.760977        -0.831199
 H         3.788840         2.112477        -2.446963
 H         2.456764         3.947494        -1.143510
 H         1.429062         2.425488        -1.482868
 H         2.403780         1.172216         1.525562
