19
Iteration:  2500charge 0 multiplicity 1
 C        -0.100109         0.090373        -0.191215
 C         1.421408         0.091513        -0.163934
 O         2.197213        -1.167365         0.031505
 C         2.570688        -0.204358        -1.009575
 C         3.467859         0.864347        -0.425862
 C         3.561836         1.991576        -1.488463
 C         2.576460         3.163901        -0.964148
 O         1.770920         2.553363         0.050348
 C         2.304853         1.230562         0.489419
 H        -0.393079        -0.275005         0.789205
 H        -0.534108         1.092725        -0.279346
 H        -0.509550        -0.513142        -1.040248
 H         2.634266        -0.618547        -2.081020
 H         4.411818         0.410052        -0.084238
 H         4.598112         2.258934        -1.578586
 H         3.435571         1.604769        -2.526800
 H         2.871369         4.080755        -0.494090
 H         2.107201         3.382203        -1.876928
 H         2.480694         1.109830         1.537502
