19
Iteration:  3100charge 0 multiplicity 1
 C        -0.093427        -0.000525        -0.169377
 C         1.414692         0.088148        -0.089425
 O         2.165662        -1.085529         0.083376
 C         2.475560        -0.295966        -1.083690
 C         3.487688         0.822543        -0.572171
 C         3.712507         2.214665        -1.468055
 C         2.492829         3.063851        -1.059137
 O         1.904767         2.536274         0.209390
 C         2.267755         1.228368         0.433698
 H        -0.704083        -0.392529         0.597665
 H        -0.486130         1.051314        -0.239734
 H        -0.329038        -0.473443        -1.102279
 H         2.185381        -0.626329        -2.085579
 H         4.350982         0.257547        -0.195372
 H         4.592198         2.756256        -1.118421
 H         3.613441         1.763313        -2.541732
 H         2.548309         4.110692        -0.840922
 H         1.796477         2.952457        -1.952249
 H         2.451873         1.378517         1.527367
