19
Iteration:  2617
 C        -0.146356        -0.095296        -0.238199
 C         1.389680         0.072029        -0.198458
 O         2.241920        -1.119047         0.233346
 C         2.546886        -0.270091        -1.039147
 C         3.393605         0.912104        -0.596035
 C         3.461534         2.040212        -1.587738
 C         2.906465         3.255737        -0.714395
 O         1.742780         2.558556         0.023726
 C         2.194298         1.266412         0.339638
 H        -0.595058         0.132576         0.771910
 H        -0.720844         0.373216        -0.994858
 H        -0.170419        -1.210470        -0.475246
 H         2.661179        -1.071765        -1.859963
 H         4.365994         0.588679        -0.250045
 H         4.411166         2.328664        -1.882072
 H         2.910263         2.061891        -2.555241
 H         3.648143         3.532999         0.044867
 H         2.614829         4.190441        -1.308999
 H         2.391892         1.314691         1.436926
