19
Iteration:  1707charge 0 multiplicity 1
 C        -0.045341         0.281181        -0.287510
 C         1.449973         0.146467        -0.214918
 O         2.112055        -1.111942        -0.051951
 C         2.644204        -0.220781        -1.022723
 C         3.518060         0.825429        -0.406491
 C         3.570662         2.053420        -1.400607
 C         2.213378         2.764671        -1.196560
 O         2.060622         2.618696         0.302561
 C         2.259136         1.224784         0.569620
 H        -0.332361         0.057949         0.828814
 H        -0.611525         1.143433        -0.729055
 H        -0.474153        -0.604494        -0.790445
 H         2.839974        -0.630501        -2.082720
 H         4.511376         0.628068        -0.062694
 H         4.441359         2.670522        -1.066281
 H         3.794145         1.930325        -2.527666
 H         2.211786         3.836438        -1.410055
 H         1.366286         2.291988        -1.701786
 H         2.407512         1.112121         1.676302
