19
Iteration:  2916
 C        -0.119179        -0.000460        -0.220251
 C         1.435977         0.139166        -0.189816
 O         2.190706        -1.134895         0.083838
 C         2.583945        -0.297448        -1.032764
 C         3.482048         0.882535        -0.431421
 C         3.441943         2.025239        -1.523061
 C         2.650124         3.126586        -0.934827
 O         1.812253         2.568161         0.114144
 C         2.303553         1.227082         0.403858
 H        -0.384558        -0.432748         0.756126
 H        -0.534602         1.108805        -0.094140
 H        -0.507703        -0.368718        -1.193867
 H         2.457537        -0.596579        -2.072220
 H         4.517899         0.595840         0.011648
 H         4.410418         2.399732        -1.869526
 H         2.866720         1.804972        -2.396823
 H         3.448821         3.841351        -0.489654
 H         2.052418         3.831170        -1.562046
 H         2.515496         1.090484         1.512006
