19
Iteration:  4137charge 0 multiplicity 1
 C        -0.093930        -0.136967        -0.453959
 C         1.397713         0.103254        -0.150358
 O         2.130367        -1.116184         0.153526
 C         2.478549        -0.236110        -1.064336
 C         3.390512         0.822621        -0.601143
 C         3.524423         2.132419        -1.493645
 C         2.456874         3.115518        -0.946131
 O         2.155267         2.688564         0.401738
 C         2.325896         1.259906         0.416921
 H        -0.640557        -0.316775         0.382742
 H        -0.515530         0.753359        -1.039630
 H        -0.189036        -1.068775        -1.031506
 H         2.401659        -0.734414        -1.962425
 H         4.356959         0.455394        -0.236921
 H         4.544977         2.423049        -1.610176
 H         3.129078         1.817745        -2.488990
 H         2.835244         4.100159        -0.822077
 H         1.481938         3.050865        -1.408968
 H         2.506162         1.086660         1.490022
