19
Iteration:   392
 C        -0.041529         0.131132        -0.285401
 C         1.436459         0.116480        -0.006443
 O         2.107441        -1.152065        -0.050399
 C         2.368589        -0.184990        -1.012246
 C         3.394493         0.893841        -0.558114
 C         3.613767         2.023190        -1.486926
 C         2.508739         2.934174        -1.081367
 O         1.959010         2.590004         0.301219
 C         2.435101         1.239704         0.509965
 H        -0.601355        -0.414599         0.541826
 H        -0.277030         1.199524        -0.402118
 H        -0.246791        -0.328643        -1.281341
 H         2.045114        -0.568146        -2.061690
 H         4.414251         0.498595        -0.106548
 H         4.565382         2.564294        -1.297948
 H         3.704521         1.775062        -2.567519
 H         2.699390         4.022519        -0.941806
 H         1.617877         2.863498        -1.817138
 H         2.661486         0.982351         1.604708
