19
Iteration:  1021
 C        -0.082907         0.100613        -0.240044
 C         1.445828         0.226734        -0.005009
 O         2.229258        -1.042928        -0.032015
 C         2.386885        -0.177403        -1.119292
 C         3.448224         0.773126        -0.530422
 C         3.658366         2.060461        -1.324017
 C         2.379070         2.815733        -1.166775
 O         1.972347         2.583742         0.189936
 C         2.340265         1.241284         0.574549
 H        -0.631223        -0.528309         0.464020
 H        -0.627831         1.074617        -0.146731
 H        -0.119301        -0.144626        -1.350345
 H         2.318633        -0.379010        -2.284682
 H         4.340169         0.245651        -0.103693
 H         4.465563         2.596742        -0.907321
 H         3.948493         1.905039        -2.366450
 H         2.250834         3.982819        -1.126721
 H         1.629415         2.423157        -1.978507
 H         2.529664         1.131708         1.640421
