19
Iteration:  2375charge 0 multiplicity 1
 C        -0.065116         0.163472        -0.251338
 C         1.457819         0.118347        -0.190533
 O         2.105712        -1.128100        -0.071063
 C         2.540573        -0.152302        -1.089642
 C         3.503085         0.920469        -0.387816
 C         3.675025         2.020144        -1.394319
 C         2.335403         2.814810        -1.105012
 O         1.916522         2.602515         0.223590
 C         2.355614         1.196436         0.590581
 H        -0.367327        -0.149367         0.748525
 H        -0.361487         1.206803        -0.372510
 H        -0.469634        -0.487555        -1.004195
 H         2.419436        -0.495336        -2.075299
 H         4.494113         0.602140        -0.020684
 H         4.389553         2.831744        -1.175115
 H         3.664223         1.628057        -2.519025
 H         2.521213         3.889918        -1.387785
 H         1.528299         2.483830        -1.748715
 H         2.432190         1.365009         1.683782
