19
Iteration:  3018charge 0 multiplicity 1
 C        -0.071288         0.054685        -0.115700
 C         1.397823         0.154501        -0.137709
 O         2.187417        -1.104886        -0.036715
 C         2.567018        -0.301561        -1.089968
 C         3.488359         0.816690        -0.472143
 C         3.521242         2.084897        -1.429082
 C         2.573590         3.136798        -0.961277
 O         1.812963         2.602493         0.106226
 C         2.262136         1.151681         0.449677
 H        -0.502969         0.167728         0.907780
 H        -0.410745         0.721040        -0.824171
 H        -0.309287        -1.021179        -0.449575
 H         2.593530        -0.786400        -2.097079
 H         4.354961         0.271096        -0.117388
 H         4.520357         2.543353        -1.570333
 H         3.463753         1.597832        -2.398388
 H         3.160711         4.019497        -0.554810
 H         1.982738         3.445496        -1.768299
 H         2.501379         1.354202         1.462491
