19
Iteration:     1
 C        -0.080701         0.202818        -0.164477
 C         1.410269         0.174366        -0.131631
 O         2.093440        -1.082179        -0.016417
 C         2.446055        -0.219515        -1.108347
 C         3.462775         0.789139        -0.557436
 C         3.662719         2.063991        -1.384511
 C         2.391727         2.879791        -1.097819
 O         2.026068         2.561453         0.243388
 C         2.368169         1.215310         0.499004
 H        -0.492624        -0.037464         0.822162
 H        -0.432682         1.202057        -0.437824
 H        -0.469589        -0.523687        -0.883094
 H         2.356649        -0.627372        -2.110322
 H         4.391061         0.348670        -0.190572
 H         4.545131         2.600175        -1.023055
 H         3.801394         1.871037        -2.452365
 H         2.541127         3.961245        -1.152247
 H         1.585276         2.611074        -1.796405
 H         2.565610         1.100148         1.566879
