19
Iteration:  2095
 C        -0.071514         0.107776        -0.274486
 C         1.414348         0.137856        -0.174493
 O         2.136475        -1.029561         0.117490
 C         2.517411        -0.306295        -1.110330
 C         3.475654         0.810120        -0.597056
 C         3.667589         2.146911        -1.329857
 C         2.294536         2.952903        -1.090473
 O         2.022066         2.535963         0.204015
 C         2.305242         1.231427         0.499017
 H        -0.446351        -0.071702         0.688356
 H        -0.459190         1.041239        -0.459665
 H        -0.352479        -0.688225        -0.971994
 H         2.516528        -0.800946        -2.098682
 H         4.381153         0.285495        -0.161941
 H         4.473433         2.787411        -0.785115
 H         3.837628         2.066357        -2.397987
 H         2.455447         4.032577        -1.064207
 H         1.539960         2.732049        -1.854082
 H         2.513757         0.991330         1.526319
