19
Iteration:  2722charge 0 multiplicity 1
 C        -0.033937         0.090157        -0.159929
 C         1.499507         0.157888        -0.139361
 O         2.182492        -1.172855         0.099344
 C         2.547464        -0.277910        -1.082398
 C         3.449938         0.859850        -0.482587
 C         3.575334         2.017058        -1.475179
 C         2.588438         3.143177        -0.879549
 O         1.703828         2.507727        -0.009826
 C         2.248099         1.235895         0.389606
 H        -0.408486        -0.541584         0.672754
 H        -0.296128         1.111313         0.080406
 H        -0.515116        -0.228943        -1.097184
 H         2.561171        -0.657336        -2.079629
 H         4.398875         0.543501        -0.004465
 H         4.640193         2.545883        -1.449523
 H         3.305734         1.679154        -2.566863
 H         3.225087         3.861190        -0.200073
 H         2.083433         3.737829        -1.655059
 H         2.550061         1.314543         1.444523
