19
Iteration:   391
 C        -0.027632         0.130143        -0.283463
 C         1.432384         0.115150        -0.015142
 O         2.114592        -1.149853        -0.045981
 C         2.365920        -0.179151        -1.020778
 C         3.396704         0.884599        -0.568611
 C         3.613099         2.025243        -1.483979
 C         2.514175         2.925373        -1.083404
 O         1.955912         2.595670         0.309347
 C         2.424310         1.240511         0.513627
 H        -0.632397        -0.389247         0.530727
 H        -0.274377         1.201141        -0.384246
 H        -0.271686        -0.315291        -1.269450
 H         2.039750        -0.560551        -2.024239
 H         4.427335         0.489944        -0.070857
 H         4.578982         2.532415        -1.313345
 H         3.708582         1.776759        -2.588575
 H         2.673047         4.017423        -0.959931
 H         1.602524         2.868771        -1.799912
 H         2.626944         0.986994         1.603952
