19
Iteration:  1157charge 0 multiplicity 1
 C        -0.051630         0.046053        -0.291649
 C         1.417587         0.250661        -0.232292
 O         2.172829        -1.060718         0.023880
 C         2.520382        -0.257128        -1.087242
 C         3.449575         0.820351        -0.504402
 C         3.606214         1.974682        -1.442990
 C         2.409200         2.911584        -1.042626
 O         1.972701         2.618982         0.348251
 C         2.288999         1.325867         0.507833
 H        -0.557294        -0.242559         0.630901
 H        -0.653182         0.919315        -0.560106
 H        -0.190474        -0.782919        -0.924341
 H         2.618674        -0.544371        -2.129881
 H         4.330835         0.478294         0.047396
 H         4.572395         2.576363        -1.429489
 H         3.442499         1.661316        -2.490642
 H         2.602673         3.945478        -1.126037
 H         1.585060         2.595164        -1.795825
 H         2.473611         1.049090         1.582386
