19
Iteration:  4959charge 0 multiplicity 1
 C        -0.102524         0.036520        -0.194529
 C         1.398141         0.189554        -0.161304
 O         2.194449        -1.046483        -0.092477
 C         2.499119        -0.182018        -1.126692
 C         3.388713         0.860556        -0.566269
 C         3.640706         2.068732        -1.427066
 C         2.431304         2.891929        -1.029956
 O         2.029635         2.578694         0.327268
 C         2.279783         1.219253         0.527096
 H        -0.314112        -0.398428         0.790160
 H        -0.658259         0.905841        -0.251910
 H        -0.450282        -0.706915        -0.887802
 H         2.322966        -0.682080        -2.052796
 H         4.289207         0.550399        -0.053690
 H         4.591894         2.566845        -1.096055
 H         3.676626         1.932450        -2.492511
 H         2.747638         3.963843        -1.192492
 H         1.517725         2.658632        -1.706199
 H         2.506665         1.129699         1.561519
