19
Iteration:  2611
 C        -0.105702        -0.128420        -0.241945
 C         1.385003         0.074205        -0.203457
 O         2.242713        -1.109158         0.231883
 C         2.561870        -0.295139        -1.035597
 C         3.378831         0.908007        -0.573160
 C         3.415559         2.036537        -1.570023
 C         2.880412         3.244357        -0.667468
 O         1.772064         2.601045        -0.020250
 C         2.195522         1.290613         0.306620
 H        -0.494037         0.200162         0.698642
 H        -0.759285         0.475325        -0.959470
 H        -0.273861        -1.159219        -0.455302
 H         2.528639        -0.891029        -1.929568
 H         4.354493         0.491981        -0.197109
 H         4.482119         2.324450        -1.943582
 H         2.742211         1.729755        -2.451376
 H         3.540108         3.551927         0.224458
 H         2.716185         4.114130        -1.247178
 H         2.615663         1.179098         1.321511
