19
Iteration:   968charge 0 multiplicity 1
 C        -0.054448         0.174886        -0.243066
 C         1.422623         0.125517        -0.217204
 O         2.110563        -1.191057         0.021808
 C         2.628622        -0.351928        -1.019277
 C         3.489449         0.804923        -0.527876
 C         3.554021         2.063706        -1.411273
 C         2.345102         2.985334        -1.125317
 O         2.030658         2.687068         0.279964
 C         2.250962         1.259710         0.461133
 H        -0.430521        -0.159693         0.694760
 H        -0.246859         1.200874        -0.123378
 H        -0.727659        -0.247956        -0.982738
 H         2.732338        -0.865276        -2.049063
 H         4.499910         0.433660        -0.240174
 H         4.392643         2.639588        -0.978976
 H         3.730088         1.801803        -2.453585
 H         2.613163         3.996314        -0.869811
 H         1.359769         2.899150        -1.698389
 H         2.417927         1.063099         1.497538
