19
Iteration:  3583
 C        -0.015512         0.056201        -0.324140
 C         1.468421         0.148278        -0.034289
 O         2.247548        -1.091937         0.190012
 C         2.510259        -0.349089        -1.040052
 C         3.363716         0.900482        -0.610139
 C         3.374400         2.068451        -1.603847
 C         2.753418         3.110506        -0.728167
 O         1.721265         2.485906         0.019667
 C         2.351950         1.285537         0.392778
 H        -0.614891        -0.167781         0.684116
 H        -0.503398         1.021859        -0.639211
 H        -0.143421        -0.845832        -0.998347
 H         2.423155        -0.920982        -1.948776
 H         4.353019         0.564409        -0.233158
 H         4.330995         2.023375        -2.047901
 H         2.690801         1.932575        -2.450400
 H         3.483167         3.374689         0.059334
 H         2.451662         4.025476        -1.264050
 H         2.576846         1.488185         1.487477
