19
Iteration:   563
 C        -0.021640         0.201124        -0.154060
 C         1.474657         0.195959        -0.255154
 O         1.966512        -1.030736         0.039554
 C         2.574912        -0.271313        -1.041915
 C         3.514476         0.842866        -0.637864
 C         3.647850         2.094221        -1.377202
 C         2.321948         2.867209        -1.103605
 O         1.996546         2.518811         0.249357
 C         2.347498         1.141570         0.484294
 H        -0.252417        -0.427491         0.781410
 H        -0.426923         1.258921         0.170800
 H        -0.655383        -0.122337        -1.060910
 H         2.616852        -0.852415        -1.955308
 H         4.438383         0.286079        -0.328261
 H         4.427404         2.549806        -0.745705
 H         3.824821         2.089639        -2.512114
 H         2.567899         3.950078        -0.962382
 H         1.392636         2.960776        -1.904354
 H         2.573871         1.081410         1.548475
