19
Iteration:  2914
 C        -0.108716        -0.008399        -0.222139
 C         1.442372         0.154164        -0.183965
 O         2.190626        -1.140684         0.083599
 C         2.576770        -0.302447        -1.039329
 C         3.494140         0.875339        -0.427599
 C         3.423116         2.031309        -1.529503
 C         2.663001         3.133204        -0.928209
 O         1.812253         2.564953         0.120124
 C         2.282666         1.232584         0.390737
 H        -0.423049        -0.411725         0.753052
 H        -0.503813         1.105497        -0.101882
 H        -0.478664        -0.370887        -1.157127
 H         2.484903        -0.623135        -2.053976
 H         4.474306         0.572486         0.004136
 H         4.382713         2.385937        -1.812047
 H         2.927605         1.716140        -2.400803
 H         3.427708         3.816978        -0.494741
 H         2.053238         3.902609        -1.566769
 H         2.559066         1.167675         1.480232
