19
Iteration:  1840
 C        -0.166055         0.005999        -0.231319
 C         1.352111         0.090030        -0.119888
 O         2.185886        -1.173161        -0.079277
 C         2.540444        -0.114988        -1.069393
 C         3.435609         0.808071        -0.433971
 C         3.720036         2.114762        -1.343189
 C         2.349188         2.896202        -1.152333
 O         2.002158         2.631754         0.215636
 C         2.319463         1.318769         0.523818
 H        -0.506506         0.109654         0.790069
 H        -0.599089         0.927092        -0.651581
 H        -0.477037        -0.804222        -0.744650
 H         2.388056        -0.121983        -2.092639
 H         4.306009         0.430184         0.058040
 H         4.712897         2.603873        -1.097376
 H         3.904501         1.714222        -2.337832
 H         2.633154         3.947228        -1.305040
 H         1.655507         2.570338        -1.859493
 H         2.599315         1.303546         1.604632
