19
Iteration:  1252charge 0 multiplicity 1
 C        -0.056481         0.294032        -0.262787
 C         1.467013         0.126148        -0.124829
 O         2.222364        -1.160819        -0.051422
 C         2.527150        -0.186771        -1.056643
 C         3.506434         0.803818        -0.470977
 C         3.667642         2.132194        -1.401126
 C         2.281008         2.779678        -1.173597
 O         1.899555         2.542293         0.243686
 C         2.308944         1.239656         0.610811
 H        -0.574796         0.040307         0.728202
 H        -0.150708         1.418654        -0.284985
 H        -0.509160        -0.320926        -1.099619
 H         2.200246        -0.412848        -2.051630
 H         4.453588         0.377427        -0.044457
 H         4.575668         2.685976        -1.162781
 H         3.722449         1.961573        -2.430808
 H         2.167626         3.907181        -1.325662
 H         1.565161         2.265906        -1.918613
 H         2.418058         1.147741         1.697125
