19
Iteration:   835charge 0 multiplicity 1
 C        -0.124268         0.090157        -0.204519
 C         1.490706         0.115840        -0.090136
 O         2.108364        -1.240086        -0.084855
 C         2.486843        -0.128973        -1.042211
 C         3.468906         0.852010        -0.434165
 C         3.621974         2.030254        -1.370771
 C         2.406711         3.000582        -1.164680
 O         1.954896         2.607591         0.162932
 C         2.378710         1.282916         0.583338
 H        -0.458716        -0.117746         0.767222
 H        -0.381099         1.122737        -0.414458
 H        -0.634055        -0.422011        -0.995516
 H         2.352057        -0.490725        -2.008163
 H         4.376985         0.394845        -0.128566
 H         4.566126         2.514024        -1.219091
 H         3.633154         1.689608        -2.441296
 H         2.741028         4.029207        -1.165849
 H         1.648345         2.691353        -1.966440
 H         2.623303         1.237598         1.632509
