19
Iteration:  3087
 C        -0.043046         0.009160        -0.213595
 C         1.415741         0.129686        -0.072978
 O         2.197299        -1.085853         0.108408
 C         2.388687        -0.290956        -1.108442
 C         3.414896         0.853610        -0.657635
 C         3.663596         2.108320        -1.376173
 C         2.521285         3.084512        -1.028784
 O         1.838244         2.582875         0.161435
 C         2.340456         1.220644         0.480601
 H        -0.408231        -0.484568         0.686310
 H        -0.541714         0.962686        -0.522325
 H        -0.212464        -0.663415        -1.004655
 H         2.369524        -0.942312        -1.971806
 H         4.364988         0.575136        -0.254809
 H         4.702232         2.421827        -1.241399
 H         3.704213         2.112044        -2.583634
 H         2.994764         4.056919        -0.843722
 H         1.743498         3.138732        -1.787874
 H         2.523524         0.938962         1.565330
