19
Iteration:   192charge 0 multiplicity 1
 C         0.013781         0.068277        -0.214231
 C         1.472036         0.137981         0.001842
 O         1.983005        -1.209710        -0.055983
 C         2.368365        -0.110614        -1.056320
 C         3.503349         0.781958        -0.587453
 C         3.688338         2.076234        -1.392529
 C         2.409009         2.946177        -1.097487
 O         1.978836         2.604441         0.184927
 C         2.403969         1.294892         0.550791
 H        -0.699260        -0.303536         0.524173
 H        -0.396363         1.086350        -0.298381
 H        -0.263595        -0.462097        -1.135918
 H         2.056217        -0.416227        -1.985558
 H         4.540004         0.316026        -0.285163
 H         4.555228         2.543803        -0.959805
 H         3.849158         1.820162        -2.491762
 H         2.740689         3.960289        -1.030384
 H         1.625085         2.781690        -1.839889
 H         2.529494         1.460825         1.616453
