19
Iteration:  2869
 C        -0.101931        -0.026458        -0.277178
 C         1.372215         0.033231        -0.083914
 O         2.234126        -1.074234         0.178460
 C         2.468123        -0.289247        -0.997519
 C         3.448666         0.856524        -0.639780
 C         3.433681         2.046039        -1.602095
 C         2.765535         3.246829        -0.711163
 O         1.819893         2.493258         0.006725
 C         2.305216         1.292429         0.390029
 H        -0.646048         0.015389         0.683417
 H        -0.446967         0.799539        -0.960970
 H        -0.198640        -0.923285        -0.861764
 H         2.551404        -0.970587        -1.822702
 H         4.379235         0.637608        -0.176677
 H         4.356593         2.440838        -1.889620
 H         2.853290         1.877331        -2.448768
 H         3.588176         3.643865        -0.086010
 H         2.250383         4.203377        -1.166644
 H         2.380098         1.101290         1.454976
