19
Iteration:  3824charge 0 multiplicity 1
 C        -0.067352        -0.116200        -0.329486
 C         1.384098         0.083086        -0.117038
 O         2.234209        -1.038920         0.223713
 C         2.495414        -0.428535        -1.019994
 C         3.415375         0.836835        -0.710858
 C         3.388603         2.031603        -1.570219
 C         2.794135         3.258370        -0.761062
 O         1.846849         2.649307         0.141523
 C         2.256968         1.290485         0.378811
 H        -0.507258        -0.373931         0.673993
 H        -0.397399         0.916281        -0.629972
 H        -0.283587        -0.906379        -0.938551
 H         2.426828        -0.802527        -2.042439
 H         4.313305         0.558008        -0.155331
 H         4.349818         2.160990        -2.186715
 H         2.547657         1.806979        -2.326271
 H         3.568424         3.719695        -0.058781
 H         2.349543         3.937139        -1.457917
 H         2.560129         1.198881         1.470436
