19
Iteration:  3768charge 0 multiplicity 1
 C        -0.109350        -0.094092        -0.147652
 C         1.414572         0.088612        -0.187869
 O         2.213111        -1.148317         0.077928
 C         2.452060        -0.328035        -1.090956
 C         3.442696         0.854335        -0.550119
 C         3.468696         2.044529        -1.510466
 C         2.722597         3.203315        -0.892058
 O         1.829514         2.660668         0.108048
 C         2.288147         1.294690         0.469687
 H        -0.540691        -0.372406         0.790658
 H        -0.705392         0.826450        -0.432948
 H        -0.353817        -0.775925        -0.905216
 H         2.930765        -0.680507        -2.018530
 H         4.299789         0.553781         0.049057
 H         4.509788         2.297427        -1.807061
 H         2.971095         1.703598        -2.515148
 H         3.482831         3.907363        -0.438888
 H         2.297384         3.806217        -1.717167
 H         2.500682         1.221815         1.562720
