19
Iteration:  1701
 C        -0.041052         0.237632        -0.275074
 C         1.433726         0.170481        -0.216932
 O         2.134009        -1.104504        -0.059041
 C         2.643030        -0.243847        -1.011091
 C         3.497264         0.809165        -0.469641
 C         3.572099         2.060677        -1.371808
 C         2.217844         2.783387        -1.178880
 O         2.055186         2.623008         0.265608
 C         2.276369         1.228187         0.564001
 H        -0.373636         0.318103         0.751451
 H        -0.474990         1.232343        -0.567881
 H        -0.473495        -0.603444        -0.802886
 H         2.769977        -0.615828        -1.973145
 H         4.495141         0.531623        -0.011925
 H         4.430991         2.545198        -0.884509
 H         3.907989         1.918843        -2.357634
 H         2.077962         3.885587        -1.347551
 H         1.357762         2.215103        -1.617562
 H         2.303090         1.173207         1.647979
