19
Iteration:  4202charge 0 multiplicity 1
 C        -0.058383         0.207547        -0.223517
 C         1.413815         0.076679        -0.170166
 O         2.216422        -1.177736         0.001216
 C         2.589319        -0.304545        -1.073113
 C         3.418962         0.867256        -0.547588
 C         3.492635         2.119016        -1.421137
 C         2.462288         3.101014        -0.973507
 O         1.908267         2.486092         0.198384
 C         2.293446         1.188456         0.490726
 H        -0.522002        -0.131895         0.673757
 H        -0.342684         1.339358        -0.357668
 H        -0.467471        -0.507869        -1.018657
 H         2.711957        -0.558988        -2.093360
 H         4.393335         0.483330        -0.224738
 H         4.416015         2.675550        -1.145712
 H         3.586876         1.896797        -2.532428
 H         3.050968         3.978631        -0.689822
 H         1.636881         3.284481        -1.758445
 H         2.428284         0.977819         1.603966
