19
Iteration:   318
 C        -0.083264         0.272039        -0.204647
 C         1.449832         0.196817        -0.137351
 O         2.082849        -1.143569        -0.065820
 C         2.466286        -0.247421        -1.116706
 C         3.535656         0.754507        -0.547893
 C         3.580497         2.070602        -1.329523
 C         2.293782         2.844782        -1.115182
 O         2.025674         2.582179         0.289434
 C         2.442251         1.215259         0.548522
 H        -0.525444         0.362324         0.810325
 H        -0.340279         1.163043        -0.810918
 H        -0.518564        -0.611624        -0.701469
 H         2.427337        -0.544696        -2.259259
 H         4.453055         0.358037        -0.275402
 H         4.409477         2.763286        -1.032436
 H         3.778272         2.045353        -2.380158
 H         2.403838         3.949948        -1.328070
 H         1.467252         2.573646        -1.763387
 H         2.724453         1.083883         1.631508
