19
Iteration:  4074
 C        -0.030058         0.290832        -0.247751
 C         1.481792         0.157757        -0.181930
 O         2.131476        -1.092916        -0.092932
 C         2.647816        -0.329611        -1.084879
 C         3.528287         0.810368        -0.491098
 C         3.604937         2.090657        -1.442975
 C         2.180091         2.857865        -1.117360
 O         1.890468         2.548051         0.376599
 C         2.384498         1.207291         0.568160
 H        -0.328272         0.531969         0.829421
 H        -0.405358         1.189691        -0.887040
 H        -0.468399        -0.597973        -0.613740
 H         2.530712        -0.665369        -2.063950
 H         4.544348         0.521668        -0.148144
 H         4.372862         2.794394        -1.169131
 H         3.593432         1.867490        -2.495002
 H         2.337729         3.967495        -0.975758
 H         1.594625         2.494152        -2.012369
 H         2.543563         1.032675         1.605872
