19
Iteration:  1291
 C        -0.108071         0.047607        -0.058080
 C         1.405950         0.219262        -0.243961
 O         2.076224        -1.029089        -0.055556
 C         2.561574        -0.188208        -1.124852
 C         3.548795         0.837772        -0.452329
 C         3.689988         2.110142        -1.279066
 C         2.348157         2.893745        -1.249741
 O         1.985656         2.509611         0.166801
 C         2.296116         1.220714         0.524894
 H        -0.187337         0.047432         1.023554
 H        -0.697096         0.863890        -0.498930
 H        -0.532060        -0.902106        -0.410489
 H         2.554880        -0.506635        -2.163792
 H         4.457393         0.445166        -0.059607
 H         4.292502         2.735740        -0.610378
 H         4.108390         1.925476        -2.370767
 H         2.323072         3.978067        -1.242778
 H         1.631315         2.472099        -1.897983
 H         2.383937         1.008287         1.671515
