19
Iteration:  2868charge 0 multiplicity 1
 C        -0.104126        -0.024112        -0.280603
 C         1.373184         0.040071        -0.077199
 O         2.235010        -1.069065         0.174653
 C         2.472832        -0.293299        -0.995441
 C         3.443028         0.853023        -0.641117
 C         3.438926         2.040300        -1.602410
 C         2.759118         3.245406        -0.702752
 O         1.821378         2.500078        -0.000261
 C         2.305466         1.286713         0.391547
 H        -0.652006         0.027975         0.670450
 H        -0.430641         0.756846        -0.929808
 H        -0.194965        -0.946928        -0.840833
 H         2.586400        -1.002485        -1.823833
 H         4.363169         0.626086        -0.222056
 H         4.385869         2.431975        -1.885067
 H         2.812275         1.939001        -2.457560
 H         3.570091         3.625049        -0.102401
 H         2.254976         4.198962        -1.126525
 H         2.371429         1.112599         1.451592
