19
Iteration:  2248charge 0 multiplicity 1
 C        -0.094906         0.031411        -0.260920
 C         1.380325         0.183620        -0.092053
 O         2.106781        -1.074766        -0.091483
 C         2.505044        -0.155270        -1.072841
 C         3.539402         0.766647        -0.472753
 C         3.658031         2.102980        -1.337058
 C         2.321439         2.887039        -1.103703
 O         1.989418         2.644390         0.214203
 C         2.375744         1.221270         0.547840
 H        -0.571485         0.028738         0.733424
 H        -0.480949         0.824991        -0.874975
 H        -0.384405        -1.005413        -0.760881
 H         2.511569        -0.643309        -2.030919
 H         4.600510         0.475351        -0.131860
 H         4.547662         2.730749        -1.081542
 H         3.783055         1.799216        -2.363713
 H         2.451076         3.963936        -1.096013
 H         1.558910         2.624111        -1.853744
 H         2.458624         1.086084         1.626335
