19
Iteration:   819
 C        -0.106492         0.130497        -0.169987
 C         1.331860         0.047467         0.036199
 O         2.200122        -1.149525        -0.096967
 C         2.432168        -0.230079        -1.057210
 C         3.433076         0.854117        -0.489078
 C         3.675385         2.074948        -1.387373
 C         2.465177         2.910097        -1.157110
 O         1.970450         2.614654         0.162291
 C         2.358373         1.281986         0.504509
 H        -0.799140        -0.487157         0.521531
 H        -0.454480         1.183562        -0.192087
 H        -0.237951        -0.328499        -1.186824
 H         2.387610        -0.393046        -2.190949
 H         4.337477         0.433022         0.060866
 H         4.669760         2.546960        -1.105628
 H         3.858178         1.834871        -2.424891
 H         2.572672         4.031420        -1.093635
 H         1.572058         2.974766        -1.785168
 H         2.526197         1.373821         1.622714
