19
Iteration:  2774charge 0 multiplicity 1
 C        -0.056579        -0.138590        -0.226556
 C         1.435980         0.138533        -0.067895
 O         2.189400        -1.055456         0.103885
 C         2.474560        -0.302848        -1.105871
 C         3.383069         0.850425        -0.613804
 C         3.550918         2.056088        -1.491893
 C         2.818237         3.193137        -0.827784
 O         1.725749         2.547662         0.037969
 C         2.212657         1.313924         0.462928
 H        -0.377378        -0.283612         0.784785
 H        -0.616793         0.800136        -0.480423
 H        -0.287687        -0.933825        -0.880783
 H         2.485784        -0.880041        -1.981512
 H         4.452118         0.547569        -0.324927
 H         4.653668         2.162021        -1.586535
 H         3.132237         1.838127        -2.537444
 H         3.388207         3.796144        -0.179347
 H         2.363272         3.828774        -1.522207
 H         2.561086         1.368490         1.516758
