19
Iteration:  1974charge 0 multiplicity 1
 C        -0.152008        -0.005029        -0.365902
 C         1.396124         0.151564        -0.155605
 O         2.128689        -1.020805         0.102258
 C         2.536829        -0.284040        -1.072346
 C         3.472644         0.788826        -0.567602
 C         3.629216         2.187263        -1.380220
 C         2.367710         2.896674        -1.102257
 O         2.056242         2.641703         0.321458
 C         2.360649         1.233592         0.511091
 H        -0.793962        -0.284500         0.481727
 H        -0.378843         0.987428        -0.701455
 H        -0.306339        -0.684906        -1.217146
 H         2.269769        -0.835402        -2.019084
 H         4.478560         0.468007        -0.117312
 H         4.590873         2.768535        -1.033493
 H         3.661493         1.922795        -2.449137
 H         2.329644         4.003881        -1.330389
 H         1.510494         2.381711        -1.720187
 H         2.585189         1.163376         1.562363
