19
Iteration:  3367charge 0 multiplicity 1
 C         0.035734         0.365725        -0.161026
 C         1.429647         0.132373        -0.059576
 O         2.136168        -1.123749        -0.119700
 C         2.516786        -0.194007        -1.107798
 C         3.519006         0.929991        -0.432728
 C         3.685700         2.146260        -1.387293
 C         2.252472         2.694615        -1.150075
 O         1.878549         2.439879         0.183714
 C         2.347592         1.178185         0.597035
 H        -0.402852         0.240080         0.855328
 H        -0.261582         1.300037        -0.649837
 H        -0.366453        -0.296700        -0.864445
 H         2.520883        -0.397006        -2.154437
 H         4.493555         0.349497        -0.195230
 H         4.484611         2.924734        -0.978889
 H         3.918516         2.093528        -2.473651
 H         1.973476         3.747695        -1.417199
 H         1.648605         2.094323        -1.806935
 H         2.545450         1.284783         1.710480
