19
Iteration:   440
 C        -0.116392         0.246720        -0.083506
 C         1.439575         0.146788        -0.276534
 O         2.186450        -1.077048         0.006621
 C         2.518288        -0.278322        -1.151237
 C         3.314832         0.822123        -0.583515
 C         3.690541         2.044728        -1.389443
 C         2.463120         2.923073        -1.057638
 O         1.981008         2.560188         0.290116
 C         2.288601         1.213874         0.435976
 H        -0.325465        -0.127305         0.929163
 H        -0.596049         1.213405        -0.458680
 H        -0.507030        -0.549965        -0.770505
 H         2.571201        -0.795191        -2.105742
 H         4.048181         0.585102         0.072877
 H         4.696261         2.427562        -1.107934
 H         3.733030         1.787796        -2.420259
 H         2.690551         3.965818        -0.842472
 H         1.545536         2.781866        -1.635964
 H         2.518136         0.999510         1.489912
