19
Iteration:    26
 C        -0.076547         0.182310        -0.068376
 C         1.442053         0.220311        -0.345543
 O         1.917758        -1.166375         0.019907
 C         2.592261        -0.471954        -1.007692
 C         3.555318         0.769652        -0.622472
 C         3.659278         2.111534        -1.373717
 C         2.361519         3.026206        -1.077896
 O         1.970528         2.656463         0.295763
 C         2.383048         1.242743         0.385721
 H        -0.295337        -0.274176         0.897652
 H        -0.480812         1.245253        -0.044227
 H        -0.512719        -0.434570        -0.870063
 H         2.608662        -0.966679        -2.088160
 H         4.581407         0.362857        -0.155259
 H         4.594893         2.652333        -0.961488
 H         3.781999         2.062792        -2.457013
 H         2.670624         4.124225        -1.023183
 H         1.538368         2.855995        -1.791826
 H         2.525004         1.005283         1.392026
