19
Iteration:  4615charge 0 multiplicity 1
 C        -0.092854        -0.152995        -0.145409
 C         1.340450         0.161870        -0.174372
 O         2.147964        -1.119305        -0.071454
 C         2.464639        -0.181923        -1.137918
 C         3.384185         0.848529        -0.513364
 C         3.692500         2.054489        -1.450707
 C         2.533418         3.108592        -1.046593
 O         1.963613         2.644428         0.276873
 C         2.341615         1.280388         0.516413
 H        -0.448879        -0.344689         0.876319
 H        -0.744058         0.808111        -0.434728
 H        -0.331130        -0.979586        -0.786106
 H         2.357417        -0.574651        -2.105449
 H         4.297468         0.363239        -0.066098
 H         4.671548         2.207500        -1.079163
 H         3.636563         1.781838        -2.496221
 H         2.827221         4.112418        -0.871751
 H         1.671248         2.976081        -1.829719
 H         2.544800         1.272327         1.558388
