19
Iteration:   979
 C        -0.058452         0.191991        -0.185483
 C         1.430293         0.098605        -0.235470
 O         2.080108        -1.139619         0.056093
 C         2.576101        -0.397833        -1.034257
 C         3.413830         0.788118        -0.535200
 C         3.660868         2.176020        -1.430200
 C         2.299321         3.030135        -1.038114
 O         2.049073         2.597497         0.239827
 C         2.291513         1.233143         0.441935
 H        -0.330579        -0.446451         0.613202
 H        -0.384038         1.176746        -0.105346
 H        -0.313874        -0.179229        -1.171588
 H         2.659036        -1.079230        -1.956635
 H         4.370603         0.499182        -0.029250
 H         4.584582         2.647765        -1.034918
 H         3.845924         2.140937        -2.502807
 H         2.433576         4.073320        -1.358500
 H         1.578549         2.642496        -1.859397
 H         2.360503         1.199821         1.506790
