19
Iteration:  1803
 C        -0.052324         0.047668        -0.309589
 C         1.439199         0.179171        -0.262279
 O         2.086751        -1.003589         0.084717
 C         2.587863        -0.274931        -1.021368
 C         3.494745         0.810474        -0.511241
 C         3.582016         2.052040        -1.374575
 C         2.386695         2.980120        -1.049199
 O         1.984564         2.576325         0.262336
 C         2.325831         1.255772         0.429098
 H        -0.296042        -0.229449         0.697249
 H        -0.587059         0.905392        -0.639171
 H        -0.513019        -0.833066        -0.832866
 H         2.497819        -0.692278        -2.089933
 H         4.311577         0.269316        -0.015214
 H         4.507942         2.582245        -1.171216
 H         3.535557         1.678317        -2.514328
 H         2.475212         4.043016        -0.943267
 H         1.441253         2.871354        -1.708708
 H         2.555583         1.089858         1.488808
