19
Iteration:  3722charge 0 multiplicity 1
 C        -0.137691         0.182799        -0.102913
 C         1.489638         0.062209        -0.061214
 O         2.217107        -1.085547         0.058804
 C         2.545148        -0.305600        -1.053898
 C         3.500766         0.829469        -0.613011
 C         3.475627         2.170172        -1.473080
 C         2.651974         3.147244        -0.735884
 O         1.719599         2.364757        -0.146936
 C         2.330932         1.241457         0.442871
 H        -0.521018         0.263353         0.831151
 H        -0.398436         1.111539        -0.577872
 H        -0.541951        -0.714469        -0.685113
 H         2.435743        -1.028326        -1.845327
 H         4.353174         0.223495        -0.421519
 H         4.489012         2.467747        -1.676421
 H         3.112367         1.779860        -2.512946
 H         3.303996         3.707689        -0.002085
 H         2.142205         3.911006        -1.383404
 H         2.589757         1.316091         1.470559
