19
Iteration:  1630
 C        -0.017301        -0.004681        -0.057864
 C         1.432074         0.118304        -0.121894
 O         2.173424        -1.162434        -0.070719
 C         2.480448        -0.203987        -1.035275
 C         3.375358         0.832341        -0.500354
 C         3.771167         2.031135        -1.336304
 C         2.564927         3.094835        -1.135834
 O         1.775160         2.604200         0.049767
 C         2.217026         1.272295         0.521147
 H        -0.502882        -0.172593         0.986275
 H        -0.552046         0.978585        -0.307906
 H        -0.410387        -0.712249        -0.840066
 H         2.497451        -0.466933        -2.135588
 H         4.327975         0.448757        -0.186243
 H         4.715660         2.348775        -0.897392
 H         4.008748         1.807072        -2.395070
 H         2.878051         4.112344        -0.920107
 H         1.833130         3.070168        -1.980607
 H         2.370184         1.278106         1.632566
