19
Iteration:  4124charge 0 multiplicity 1
 C        -0.073725        -0.048980        -0.457269
 C         1.351378         0.127206        -0.197369
 O         2.201484        -1.128394         0.145618
 C         2.451752        -0.335960        -1.042901
 C         3.388783         0.860136        -0.705547
 C         3.484630         2.060721        -1.533820
 C         2.444059         3.041298        -0.918505
 O         2.105400         2.721858         0.449201
 C         2.340912         1.303287         0.537116
 H        -0.703154        -0.051895         0.404328
 H        -0.473054         0.705758        -1.132596
 H        -0.101318        -1.024131        -1.085312
 H         2.507588        -0.864864        -1.995179
 H         4.388259         0.557923        -0.409375
 H         4.412818         2.500014        -1.115174
 H         3.549658         2.110653        -2.654049
 H         2.776070         4.031492        -0.962073
 H         1.647506         2.965312        -1.664421
 H         2.668438         0.933120         1.563653
