19
Iteration:  4930
 C        -0.061232        -0.042586        -0.158471
 C         1.372967         0.130050        -0.020217
 O         2.157787        -1.161077        -0.113201
 C         2.444804        -0.140796        -1.051584
 C         3.405234         0.810654        -0.567670
 C         3.629167         2.093911        -1.409480
 C         2.587705         3.136626        -1.006988
 O         1.830975         2.564840         0.179214
 C         2.388856         1.214711         0.471447
 H        -0.516522        -0.574424         0.831591
 H        -0.569499         0.987888        -0.132442
 H        -0.313933        -0.611833        -1.041098
 H         2.426204        -0.617963        -2.079675
 H         4.313726         0.432020        -0.066601
 H         4.689966         2.413751        -1.335960
 H         3.572832         2.020639        -2.506069
 H         3.003365         4.122490        -1.003253
 H         1.847034         3.175734        -1.766037
 H         2.744624         1.204278         1.587569
