19
Iteration:  1376charge 0 multiplicity 1
 C        -0.058742         0.073026        -0.133345
 C         1.379024         0.175953        -0.242059
 O         2.113187        -1.066039         0.072043
 C         2.575867        -0.230751        -1.103480
 C         3.509440         0.854372        -0.498059
 C         3.696234         2.043160        -1.441084
 C         2.437519         2.970880        -1.070658
 O         1.858466         2.558731         0.165081
 C         2.239218         1.179613         0.473490
 H        -0.148745        -0.298074         0.948193
 H        -0.580871         1.094975        -0.173519
 H        -0.526659        -0.641786        -0.875602
 H         2.753116        -0.770325        -2.032498
 H         4.428344         0.438541        -0.024646
 H         4.572208         2.646420        -1.183754
 H         3.865900         1.911757        -2.464313
 H         2.921235         3.918822        -0.867397
 H         1.652486         3.248390        -1.879986
 H         2.400601         1.216605         1.569348
