19
Iteration:  4102charge 0 multiplicity 1
 C        -0.061657         0.098338        -0.395616
 C         1.400537         0.102093        -0.159564
 O         2.164351        -1.053902         0.157246
 C         2.499844        -0.260161        -1.106863
 C         3.471427         0.823182        -0.583673
 C         3.528782         2.126085        -1.395760
 C         2.275751         3.041017        -0.983205
 O         2.119677         2.546702         0.335361
 C         2.359723         1.165882         0.417063
 H        -0.648697         0.280834         0.468364
 H        -0.294954         0.866481        -1.119240
 H        -0.252122        -0.924635        -0.856785
 H         2.371354        -0.815074        -2.060277
 H         4.451578         0.498502        -0.242056
 H         4.463319         2.696412        -1.314599
 H         3.371164         1.899548        -2.477700
 H         2.406679         4.076788        -0.868384
 H         1.580037         2.886647        -1.786065
 H         2.555104         0.938442         1.510141
