19
Iteration:  4275
 C        -0.176726         0.056312        -0.069905
 C         1.353148         0.135968        -0.192664
 O         2.167806        -1.105960        -0.209218
 C         2.500278        -0.127202        -1.188073
 C         3.511873         0.855529        -0.426945
 C         3.737871         2.253182        -1.329817
 C         2.347073         2.742829        -1.162460
 O         2.070866         2.641709         0.273161
 C         2.255023         1.207126         0.574668
 H        -0.506887        -0.181066         0.952132
 H        -0.635629         0.938633        -0.345469
 H        -0.541873        -0.862908        -0.609918
 H         2.407348        -0.595792        -2.119571
 H         4.446925         0.449713        -0.029460
 H         4.520814         2.758258        -0.814687
 H         4.019492         2.097058        -2.382305
 H         2.252316         3.746739        -1.452433
 H         1.819733         2.038107        -1.719326
 H         2.296120         1.008051         1.664322
