19
Iteration:  3185charge 0 multiplicity 1
 C        -0.004447         0.287967        -0.263500
 C         1.454275         0.118358        -0.016756
 O         2.174385        -1.180872        -0.040060
 C         2.504893        -0.171136        -1.079966
 C         3.531622         0.835311        -0.533571
 C         3.602917         2.130814        -1.335299
 C         2.200326         2.795430        -1.136243
 O         1.935868         2.533023         0.184355
 C         2.392285         1.224905         0.540351
 H        -0.536412         0.244549         0.724874
 H        -0.191127         1.343232        -0.710519
 H        -0.394583        -0.485502        -0.885472
 H         2.251575        -0.605076        -2.024520
 H         4.406330         0.332883        -0.153841
 H         4.260932         2.845037        -0.855366
 H         4.171618         1.945412        -2.322799
 H         2.071068         3.882222        -1.231549
 H         1.556796         2.348771        -1.931974
 H         2.693529         1.292954         1.613946
