19
Iteration:  1507charge 0 multiplicity 1
 C         0.010379         0.194098        -0.274326
 C         1.491297         0.163047        -0.196173
 O         2.097507        -1.079416        -0.001287
 C         2.611623        -0.310584        -1.051779
 C         3.500611         0.860467        -0.486391
 C         3.558925         2.024510        -1.415755
 C         2.370900         2.917494        -1.059169
 O         1.896027         2.590362         0.221007
 C         2.299611         1.211572         0.524598
 H        -0.399995         0.261998         0.771544
 H        -0.562547         1.042872        -0.678968
 H        -0.468826        -0.802996        -0.521784
 H         2.720248        -0.910821        -1.895830
 H         4.456432         0.517439        -0.089767
 H         4.417899         2.626657        -1.186075
 H         3.504382         1.731216        -2.403338
 H         2.577800         3.970028        -1.037601
 H         1.704182         2.826559        -1.953258
 H         2.268705         1.279933         1.617500
