19
Iteration:  2782charge 0 multiplicity 1
 C        -0.026429        -0.142163        -0.158805
 C         1.420091         0.094963        -0.125590
 O         2.161339        -1.038534         0.101352
 C         2.536474        -0.290770        -1.098862
 C         3.369807         0.840243        -0.612435
 C         3.567895         1.985924        -1.559062
 C         2.810118         3.212770        -0.762991
 O         1.753126         2.577914         0.005698
 C         2.203004         1.315940         0.487895
 H        -0.567399        -0.288965         0.848223
 H        -0.549319         0.742095        -0.772158
 H        -0.266346        -1.045310        -0.797297
 H         2.483601        -0.854414        -2.052287
 H         4.299394         0.421643        -0.157574
 H         4.491392         2.405450        -1.746731
 H         3.067300         2.118624        -2.459554
 H         3.518573         3.803171        -0.085556
 H         2.243181         3.927950        -1.511852
 H         2.304788         1.381996         1.606727
