19
Iteration:  2099charge 0 multiplicity 1
 C        -0.066558         0.065377        -0.267204
 C         1.377643         0.180888        -0.183643
 O         2.134445        -1.034189         0.112959
 C         2.511628        -0.303362        -1.106157
 C         3.456859         0.790699        -0.589021
 C         3.670528         2.169138        -1.317615
 C         2.307847         2.912869        -1.097626
 O         2.020614         2.529757         0.249404
 C         2.332720         1.278218         0.430150
 H        -0.456293        -0.128439         0.776793
 H        -0.477840         1.123376        -0.421922
 H        -0.288737        -0.693396        -1.048850
 H         2.616331        -0.740665        -2.073999
 H         4.303493         0.287516        -0.159947
 H         4.467141         2.669394        -0.823650
 H         3.934135         2.088293        -2.391980
 H         2.430450         3.984391        -1.044172
 H         1.541426         2.649017        -1.920874
 H         2.595169         1.151631         1.517843
