19
Iteration:  2899
 C         0.001122         0.035932        -0.221543
 C         1.433416         0.077316        -0.143628
 O         2.182226        -1.123858         0.066134
 C         2.559314        -0.327531        -1.018246
 C         3.395308         0.836590        -0.581230
 C         3.439164         1.965728        -1.571764
 C         2.694439         3.209739        -0.812394
 O         1.788934         2.608305         0.091747
 C         2.262040         1.321617         0.486452
 H        -0.422709        -0.466162         0.666133
 H        -0.420686         0.932165        -0.423699
 H        -0.210246        -0.644275        -1.065642
 H         2.709760        -0.927830        -1.944764
 H         4.333855         0.652728        -0.144814
 H         4.493006         2.278221        -1.802749
 H         2.968469         1.669156        -2.638085
 H         3.409782         3.785112        -0.268834
 H         2.098741         3.800786        -1.489047
 H         2.311063         1.183121         1.563927
