19
Iteration:   161charge 0 multiplicity 1
 C        -0.075350         0.265868        -0.148144
 C         1.419170         0.161636        -0.114025
 O         2.095919        -1.161925        -0.023972
 C         2.488589        -0.193649        -1.109408
 C         3.501517         0.820741        -0.528141
 C         3.664148         2.099475        -1.348196
 C         2.383032         2.911762        -1.112265
 O         1.957786         2.496240         0.194542
 C         2.372152         1.175123         0.492494
 H        -0.563980         0.154511         0.862331
 H        -0.324351         1.282324        -0.501991
 H        -0.628024        -0.376413        -0.858332
 H         2.407084        -0.561969        -2.079046
 H         4.515711         0.407834        -0.245380
 H         4.558423         2.636024        -1.071454
 H         3.776004         1.795946        -2.438324
 H         2.476422         3.978527        -1.096889
 H         1.577082         2.679939        -1.882574
 H         2.542284         1.200795         1.626225
