19
Iteration:   909
 C        -0.041871         0.161287        -0.379500
 C         1.441536         0.131653        -0.083229
 O         2.108788        -1.131589         0.057893
 C         2.427334        -0.284837        -1.069189
 C         3.402809         0.797933        -0.558747
 C         3.604648         2.124889        -1.359358
 C         2.295903         2.908349        -1.066627
 O         2.054690         2.619178         0.294072
 C         2.472215         1.261869         0.497825
 H        -0.556517         0.475792         0.527014
 H        -0.272509         0.803307        -1.269399
 H        -0.381957        -0.823056        -0.673733
 H         2.376348        -0.655491        -2.048325
 H         4.384038         0.391705        -0.237556
 H         4.464207         2.653169        -1.097282
 H         3.762808         1.900981        -2.408143
 H         2.246306         3.996682        -1.272876
 H         1.520516         2.548213        -1.834749
 H         2.846517         1.139272         1.551229
