19
Iteration:  3634charge 0 multiplicity 1
 C        -0.037803        -0.254574        -0.085218
 C         1.303015         0.131746        -0.241852
 O         2.149774        -1.041165         0.114593
 C         2.596284        -0.326188        -1.033242
 C         3.324167         0.895548        -0.641929
 C         3.485238         1.999975        -1.530028
 C         2.879133         3.256844        -0.766945
 O         1.824955         2.687353         0.084826
 C         2.207290         1.277196         0.344140
 H        -0.347432        -0.591012         0.828608
 H        -0.654406         0.578191        -0.219082
 H        -0.324083        -1.128963        -0.817288
 H         2.575308        -0.833967        -1.974409
 H         4.150274         0.394277        -0.215961
 H         4.538129         2.153673        -1.757472
 H         3.023813         1.740061        -2.609828
 H         3.723327         3.738444        -0.238289
 H         2.416997         3.929986        -1.526312
 H         2.439909         1.369426         1.427975
