19
Iteration:   664charge 0 multiplicity 1
 C        -0.098225         0.257692        -0.179450
 C         1.415527         0.108295        -0.319494
 O         2.161214        -1.055863         0.093485
 C         2.521829        -0.332026        -1.146225
 C         3.465731         0.806060        -0.574429
 C         3.599763         2.096137        -1.329456
 C         2.327124         2.919982        -1.050237
 O         2.084333         2.577019         0.298098
 C         2.303204         1.183477         0.399145
 H        -0.428758         0.622887         0.818337
 H        -0.344606         1.036149        -0.866391
 H        -0.555969        -0.705037        -0.420558
 H         2.658751        -0.726984        -2.147105
 H         4.348732         0.380887        -0.061442
 H         4.456689         2.660688        -0.907373
 H         3.795122         1.736690        -2.329983
 H         2.209298         3.983466        -1.034458
 H         1.438190         2.611001        -1.749578
 H         2.315366         1.031165         1.466500
