19
Iteration:  1122
 C        -0.148980         0.107405        -0.281130
 C         1.394401         0.144564        -0.064619
 O         2.193465        -1.229688         0.057711
 C         2.437641        -0.254860        -1.058825
 C         3.397964         0.836290        -0.553502
 C         3.664747         2.208796        -1.333700
 C         2.408315         3.000659        -1.154604
 O         2.008686         2.515161         0.194781
 C         2.392717         1.282424         0.480674
 H        -0.644674         0.217562         0.697703
 H        -0.393597         0.789277        -1.062502
 H        -0.340648        -0.850874        -0.787372
 H         2.309541        -0.479864        -2.062693
 H         4.342727         0.342402        -0.242669
 H         4.471774         2.785400        -0.783078
 H         4.019892         2.079377        -2.304178
 H         2.548616         4.070504        -1.015209
 H         1.474437         2.923514        -1.767088
 H         2.652362         1.090740         1.509287
