19
Iteration:  4177
 C        -0.032852         0.018252        -0.305768
 C         1.391719         0.100720        -0.259722
 O         2.154687        -1.083759         0.036915
 C         2.564392        -0.285418        -1.092060
 C         3.480373         0.831929        -0.518320
 C         3.528984         1.988933        -1.501196
 C         2.517155         3.102245        -0.875246
 O         1.910200         2.640166         0.366558
 C         2.273886         1.294229         0.418344
 H        -0.297588        -0.339888         0.779027
 H        -0.523950         0.967903        -0.389908
 H        -0.420329        -0.817923        -1.024268
 H         2.720130        -0.595600        -2.143747
 H         4.330479         0.393200        -0.017417
 H         4.482612         2.502429        -1.761394
 H         3.122358         1.686893        -2.508969
 H         2.849419         4.140926        -0.908786
 H         1.741310         3.062163        -1.694462
 H         2.507451         0.936918         1.460549
