19
Iteration:  4977
 C        -0.129980         0.067299        -0.151217
 C         1.377903         0.133979        -0.275018
 O         2.101776        -1.113858         0.017893
 C         2.517152        -0.210746        -1.182429
 C         3.529894         0.799968        -0.529291
 C         3.639933         2.172468        -1.322042
 C         2.247247         2.907162        -1.065929
 O         2.103363         2.634301         0.351257
 C         2.395885         1.224728         0.441100
 H        -0.565202        -0.117050         0.781645
 H        -0.493130         1.132495        -0.492790
 H        -0.504326        -0.695859        -0.959227
 H         2.570121        -0.694127        -2.214367
 H         4.505419         0.280272        -0.394673
 H         4.504007         2.758565        -1.099862
 H         3.880911         1.934994        -2.452409
 H         2.073165         3.984605        -1.167034
 H         1.546844         2.454868        -1.746308
 H         2.503064         0.945233         1.494893
