19
Iteration:   421
 C        -0.099878         0.110103        -0.181427
 C         1.439686         0.155256        -0.148243
 O         2.030757        -1.089338        -0.008579
 C         2.456218        -0.211517        -1.069805
 C         3.569238         0.741737        -0.558578
 C         3.615921         2.074445        -1.436439
 C         2.452356         3.025922        -1.045201
 O         1.940882         2.548881         0.222638
 C         2.399756         1.230035         0.516441
 H        -0.380391        -0.259141         0.799574
 H        -0.246345         1.172959        -0.361672
 H        -0.431633        -0.478923        -1.024973
 H         2.309375        -0.677661        -1.966924
 H         4.576565         0.296200        -0.274571
 H         4.499811         2.662340        -1.200329
 H         3.505786         1.920832        -2.557300
 H         2.763004         4.061553        -0.844657
 H         1.734361         2.859048        -1.845508
 H         2.355027         1.022580         1.562726
