19
Iteration:  3271charge 0 multiplicity 1
 C        -0.043117        -0.159436        -0.291176
 C         1.385740         0.215633        -0.183693
 O         2.196144        -1.151165         0.115801
 C         2.440990        -0.210859        -1.079364
 C         3.404589         0.790551        -0.552107
 C         3.525410         2.055735        -1.460151
 C         2.502380         3.090907        -1.047304
 O         2.077055         2.748795         0.272149
 C         2.273634         1.277489         0.489621
 H        -0.548398        -0.466008         0.676855
 H        -0.726852         0.617171        -0.862878
 H        -0.180916        -0.944498        -0.999565
 H         2.251588        -0.633313        -2.041621
 H         4.293441         0.338072        -0.025475
 H         4.463212         2.475481        -1.286588
 H         3.457216         1.679527        -2.462173
 H         2.842567         4.151478        -0.879748
 H         1.575618         2.995419        -1.724176
 H         2.566538         0.960557         1.525720
