19
Iteration:  4706
 C         0.042914         0.209579        -0.340296
 C         1.484251         0.066206        -0.094262
 O         2.183830        -1.224735         0.127706
 C         2.616010        -0.378761        -1.017655
 C         3.367123         0.896482        -0.579174
 C         3.310840         2.099536        -1.611747
 C         2.669709         3.122682        -0.796057
 O         1.795605         2.552167         0.185911
 C         2.351052         1.206763         0.424590
 H        -0.596530         0.187234         0.554317
 H        -0.170401         1.284973        -0.746045
 H        -0.518657        -0.465234        -1.075525
 H         2.520016        -0.912968        -2.044060
 H         4.415388         0.802090        -0.288735
 H         4.287157         2.390015        -1.862490
 H         2.784674         1.766330        -2.478428
 H         3.358295         3.860129        -0.311314
 H         1.855930         3.634116        -1.454270
 H         2.523438         0.980179         1.501114
