19
Iteration:  4580charge 0 multiplicity 1
 C        -0.142941        -0.018664        -0.084366
 C         1.396971         0.137278        -0.211212
 O         2.168697        -1.023870        -0.011492
 C         2.404504        -0.159133        -1.190457
 C         3.401356         0.815681        -0.619311
 C         3.771658         2.131392        -1.259963
 C         2.390425         2.939879        -1.109925
 O         1.987861         2.587749         0.237117
 C         2.360936         1.191523         0.480744
 H        -0.371701        -0.520073         0.966702
 H        -0.558990         0.985190        -0.205850
 H        -0.679554        -0.626624        -0.868371
 H         2.448037        -0.668281        -2.194282
 H         4.313043         0.390522        -0.126871
 H         4.615666         2.641992        -0.617649
 H         4.253803         2.268304        -2.253908
 H         2.157628         4.031931        -1.218250
 H         1.782783         2.461336        -2.023557
 H         2.773201         1.008257         1.493656
