19
Iteration:  1531charge 0 multiplicity 1
 C        -0.067320         0.088230        -0.256269
 C         1.436620         0.120708        -0.097468
 O         2.181071        -1.118752         0.091653
 C         2.496023        -0.190804        -1.014019
 C         3.474034         0.856699        -0.538443
 C         3.674624         2.046663        -1.426511
 C         2.482219         3.058987        -1.079368
 O         1.820598         2.510435         0.159207
 C         2.332753         1.199589         0.434399
 H        -0.690999         0.052258         0.675911
 H        -0.473830         1.035156        -0.642390
 H        -0.497908        -0.806003        -0.787116
 H         2.286419        -0.484249        -2.021192
 H         4.294441         0.454172         0.010866
 H         4.574557         2.559632        -1.217594
 H         3.632964         1.727680        -2.411875
 H         2.749712         4.088431        -0.780166
 H         1.841184         3.198352        -2.012697
 H         2.544120         1.186981         1.536992
