19
Iteration:  2059charge 0 multiplicity 1
 C         0.003975         0.266381        -0.319420
 C         1.502080         0.107227        -0.086549
 O         2.195850        -1.163823        -0.044668
 C         2.593412        -0.274511        -1.037366
 C         3.419723         0.833289        -0.475402
 C         3.578212         1.982649        -1.422059
 C         2.318278         2.978620        -1.005248
 O         1.885406         2.542359         0.178521
 C         2.325878         1.282507         0.550162
 H        -0.502163         0.351431         0.711865
 H        -0.246651         1.047416        -1.166566
 H        -0.579324        -0.522962        -0.714171
 H         2.467384        -0.812372        -2.034784
 H         4.318035         0.606878         0.114826
 H         4.553156         2.512710        -1.556269
 H         3.439680         1.671090        -2.507858
 H         2.527694         4.102370        -0.853398
 H         1.460909         2.926622        -1.617918
 H         2.600020         1.384511         1.666013
