19
Iteration:  2326
 C        -0.055449         0.250907        -0.298654
 C         1.443638         0.078073        -0.122872
 O         2.110485        -1.103495         0.162976
 C         2.550536        -0.292741        -1.082145
 C         3.525488         0.766862        -0.607168
 C         3.669244         2.231758        -1.379932
 C         2.324785         2.935829        -1.049086
 O         1.922277         2.486498         0.235207
 C         2.305106         1.194376         0.425432
 H        -0.723765        -0.210817         0.433125
 H        -0.193319         1.320184        -0.383490
 H        -0.180973        -0.227562        -1.282040
 H         2.601714        -0.801811        -2.091062
 H         4.533283         0.649157        -0.238792
 H         4.574854         2.784420        -1.076129
 H         3.541607         2.127051        -2.392522
 H         2.272782         3.995262        -1.044805
 H         1.595711         2.574141        -1.793929
 H         2.526974         1.119005         1.511370
