19
Iteration:  1932
 C        -0.033112         0.112021        -0.177223
 C         1.402800         0.109150        -0.099343
 O         2.161225        -1.127134        -0.122999
 C         2.540452        -0.225405        -1.112965
 C         3.499426         0.857082        -0.432559
 C         3.667747         2.033219        -1.264245
 C         2.386053         2.875814        -1.189872
 O         1.877159         2.652264         0.196230
 C         2.300898         1.298531         0.538929
 H        -0.500417        -0.277457         0.739446
 H        -0.492766         1.072920        -0.100761
 H        -0.447417        -0.442363        -1.120172
 H         2.659475        -0.588442        -2.197782
 H         4.434132         0.313235        -0.070402
 H         4.529406         2.667442        -1.180790
 H         3.618071         1.775966        -2.281814
 H         2.595533         3.938775        -1.168228
 H         1.632034         2.649693        -1.919640
 H         2.420670         1.210265         1.605827
