19
Iteration:  3812
 C        -0.041266        -0.153665        -0.324915
 C         1.434510         0.112364        -0.144051
 O         2.214753        -1.066403         0.233446
 C         2.447583        -0.258202        -1.052475
 C         3.343154         0.806604        -0.607197
 C         3.430914         1.978807        -1.626881
 C         2.815522         3.202282        -0.799375
 O         1.802244         2.673873         0.208293
 C         2.320399         1.316835         0.377532
 H        -0.458177        -0.563576         0.603376
 H        -0.847403         0.579704        -0.656153
 H        -0.124308        -0.875113        -1.102931
 H         2.240336        -0.998600        -1.887094
 H         4.378118         0.546182        -0.410369
 H         4.493607         2.167483        -2.021599
 H         2.759520         1.840805        -2.584547
 H         3.640831         3.839664        -0.314634
 H         2.245547         3.971466        -1.357292
 H         2.620375         1.164996         1.431542
