19
Iteration:   156charge 0 multiplicity 1
 C        -0.075805         0.283252        -0.144689
 C         1.411778         0.132887        -0.138642
 O         2.117762        -1.134070         0.013050
 C         2.487445        -0.163911        -1.131693
 C         3.527840         0.788488        -0.530668
 C         3.667910         2.085860        -1.365894
 C         2.353102         2.850691        -1.086871
 O         1.980106         2.509114         0.186634
 C         2.300904         1.184900         0.497793
 H        -0.378244         0.197729         0.887717
 H        -0.205672         1.320600        -0.492245
 H        -0.623516        -0.379344        -0.813438
 H         2.528164        -0.464235        -2.251982
 H         4.475984         0.278769        -0.330792
 H         4.511507         2.771825        -1.075715
 H         3.829716         1.882776        -2.408067
 H         2.533977         3.967058        -0.993611
 H         1.560927         2.797346        -1.823907
 H         2.357099         1.117354         1.547434
