19
Iteration:   131charge 0 multiplicity 1
 C        -0.108216         0.302589        -0.122628
 C         1.402508         0.252496        -0.299669
 O         2.232009        -1.005054         0.001533
 C         2.516932        -0.319221        -1.183241
 C         3.425520         0.790629        -0.571058
 C         3.671142         2.022845        -1.288299
 C         2.362011         2.798820        -1.092363
 O         1.981043         2.569857         0.349368
 C         2.279401         1.183620         0.422909
 H        -0.213796         0.393119         0.971363
 H        -0.317905         1.292369        -0.548980
 H        -0.743999        -0.441725        -0.612429
 H         2.577914        -0.906207        -2.134840
 H         4.335318         0.440631        -0.221363
 H         4.586944         2.538687        -0.968399
 H         3.851024         1.747302        -2.326884
 H         2.156723         3.850466        -1.337860
 H         1.620518         2.221654        -1.703354
 H         2.384944         0.895173         1.512426
