19
Iteration:  1128charge 0 multiplicity 1
 C        -0.116985         0.072246        -0.289566
 C         1.416292         0.107289        -0.064519
 O         2.123549        -1.229550         0.072154
 C         2.419604        -0.217969        -1.083260
 C         3.464512         0.843429        -0.574957
 C         3.632690         2.179427        -1.334532
 C         2.411743         3.030620        -1.166271
 O         2.019555         2.550746         0.208615
 C         2.378194         1.277792         0.546634
 H        -0.733782         0.064626         0.632801
 H        -0.334757         0.872352        -1.061462
 H        -0.205499        -0.955948        -0.749554
 H         2.443099        -0.493077        -2.217691
 H         4.427945         0.468334        -0.218173
 H         4.382636         2.841439        -0.929217
 H         3.866254         1.941619        -2.431403
 H         2.669099         4.120553        -1.036228
 H         1.548662         2.903429        -1.855474
 H         2.608066         1.024255         1.608829
