19
Iteration:  2505charge 0 multiplicity 1
 C        -0.106859         0.087940        -0.194458
 C         1.395005         0.123369        -0.123454
 O         2.192176        -1.159989         0.043343
 C         2.627544        -0.206490        -1.009023
 C         3.430397         0.855786        -0.463830
 C         3.595321         1.993212        -1.511970
 C         2.579646         3.167648        -0.963605
 O         1.755444         2.575669         0.060290
 C         2.308299         1.153035         0.475372
 H        -0.519539        -0.483811         0.745835
 H        -0.512365         1.157924        -0.323603
 H        -0.423178        -0.569655        -0.996879
 H         2.698738        -0.694421        -1.919500
 H         4.397628         0.413063        -0.193897
 H         4.698764         2.372826        -1.541305
 H         3.194116         1.735829        -2.506990
 H         3.039285         4.066575        -0.419206
 H         2.129795         3.494142        -2.007102
 H         2.410599         1.205445         1.625534
