19
Iteration:  1395
 C        -0.116054         0.148638        -0.158209
 C         1.427027         0.119763        -0.258393
 O         2.204111        -1.082760         0.002672
 C         2.638285        -0.334863        -1.057199
 C         3.416631         0.859817        -0.438688
 C         3.567259         2.010849        -1.322026
 C         2.433040         3.015604        -1.093340
 O         1.951510         2.606018         0.190373
 C         2.268215         1.241837         0.424780
 H        -0.381117        -0.205654         0.859785
 H        -0.257126         1.250763        -0.166809
 H        -0.488981        -0.450985        -0.965792
 H         2.576546        -0.742821        -2.140633
 H         4.351976         0.371645        -0.002246
 H         4.586114         2.448648        -1.360428
 H         3.438562         1.662222        -2.333378
 H         2.398911         4.109115        -1.113135
 H         1.617829         2.809440        -1.891484
 H         2.292488         1.082701         1.493602
