19
Iteration:  4318
 C        -0.108443         0.022187        -0.153936
 C         1.394009         0.157025        -0.100535
 O         2.193901        -1.113487        -0.087809
 C         2.488213        -0.232206        -1.113777
 C         3.465164         0.776259        -0.619591
 C         3.666567         2.145052        -1.321550
 C         2.452848         3.019807        -1.072179
 O         1.883466         2.599843         0.206165
 C         2.346024         1.197861         0.543897
 H        -0.575412        -0.326273         0.813637
 H        -0.542546         0.922350        -0.285655
 H        -0.433868        -0.665225        -0.963000
 H         2.447545        -0.535881        -2.123526
 H         4.427964         0.400035        -0.238904
 H         4.514696         2.646907        -0.919961
 H         3.832315         2.060584        -2.381970
 H         2.735366         4.056922        -0.926989
 H         1.639544         2.822434        -1.793616
 H         2.497861         1.248923         1.605689
