19
Iteration:  3103charge 0 multiplicity 1
 C        -0.106846         0.003233        -0.168440
 C         1.403711         0.081500        -0.099343
 O         2.165259        -1.098490         0.074119
 C         2.503163        -0.275219        -1.071174
 C         3.476929         0.813043        -0.532485
 C         3.716336         2.203891        -1.480010
 C         2.461835         3.052605        -1.064326
 O         1.930276         2.537384         0.190382
 C         2.264864         1.253077         0.439150
 H        -0.671690        -0.407933         0.698277
 H        -0.435950         1.026800        -0.230805
 H        -0.512971        -0.399522        -1.189599
 H         2.209393        -0.540535        -2.103659
 H         4.393226         0.205626        -0.220622
 H         4.584068         2.816847        -1.169706
 H         3.719535         1.875451        -2.436279
 H         2.519951         4.124998        -0.818296
 H         1.696471         2.884900        -1.903568
 H         2.567033         1.247658         1.495961
