19
Iteration:  2002
 C        -0.026307         0.116894        -0.381670
 C         1.414257         0.152515        -0.252404
 O         2.187425        -1.111052         0.153885
 C         2.570204        -0.313589        -1.056754
 C         3.434071         0.768730        -0.556401
 C         3.528603         2.151874        -1.338551
 C         2.292451         2.960065        -1.112179
 O         2.093623         2.624689         0.325007
 C         2.283778         1.203563         0.445042
 H        -0.592431         0.321590         0.577160
 H        -0.330682         1.112619        -0.889730
 H        -0.323276        -0.753554        -0.976582
 H         2.436336        -0.952799        -1.869214
 H         4.344529         0.497666        -0.107622
 H         4.336624         2.745464        -1.096245
 H         3.560451         1.834228        -2.417489
 H         2.500976         4.041429        -1.156812
 H         1.387151         2.782424        -1.602264
 H         2.461167         1.116020         1.549682
