19
Iteration:   195charge 0 multiplicity 1
 C        -0.001136         0.067950        -0.214917
 C         1.459230         0.128378        -0.026326
 O         2.015039        -1.182320        -0.043225
 C         2.355693        -0.079114        -1.046034
 C         3.515368         0.786987        -0.585262
 C         3.664275         2.058312        -1.371919
 C         2.412423         2.958882        -1.095671
 O         2.012256         2.591337         0.171351
 C         2.376924         1.267913         0.537367
 H        -0.659053        -0.367201         0.597840
 H        -0.339212         1.122346        -0.272748
 H        -0.246797        -0.459985        -1.158208
 H         1.979813        -0.428540        -1.976752
 H         4.465399         0.335154        -0.270023
 H         4.585961         2.489123        -0.985667
 H         3.825875         1.797912        -2.444513
 H         2.694109         4.008003        -1.097843
 H         1.627183         2.780266        -1.874083
 H         2.470830         1.350131         1.696661
