19
Iteration:   394charge 0 multiplicity 1
 C        -0.069711         0.132488        -0.287850
 C         1.439154         0.121335         0.011893
 O         2.093500        -1.157863        -0.056369
 C         2.377444        -0.199524        -1.006834
 C         3.398281         0.904630        -0.535954
 C         3.618104         2.022834        -1.492587
 C         2.489169         2.956999        -1.077386
 O         1.968038         2.576280         0.281919
 C         2.452187         1.238382         0.510260
 H        -0.534228        -0.442028         0.539105
 H        -0.300652         1.194792        -0.427141
 H        -0.193224        -0.358113        -1.286771
 H         2.085929        -0.554515        -2.099959
 H         4.345992         0.522235        -0.206407
 H         4.535254         2.615826        -1.259322
 H         3.678686         1.767771        -2.519386
 H         2.762552         4.019148        -0.917503
 H         1.673961         2.855418        -1.827570
 H         2.737522         1.002406         1.575142
