19
Iteration:  1310
 C        -0.091589         0.028526        -0.082128
 C         1.366172         0.129154        -0.117454
 O         2.196383        -1.074016        -0.028678
 C         2.427072        -0.160347        -1.126255
 C         3.425998         0.830684        -0.561995
 C         3.827078         2.173129        -1.276250
 C         2.459028         2.821223        -1.120321
 O         1.895246         2.644518         0.154162
 C         2.292210         1.258395         0.456395
 H        -0.590612        -0.051151         0.940529
 H        -0.725140         0.722509        -0.731119
 H        -0.407263        -0.911355        -0.580939
 H         2.340163        -0.713959        -2.119718
 H         4.209846         0.208346        -0.083976
 H         4.685172         2.745808        -0.853864
 H         3.909099         2.063121        -2.353740
 H         2.571814         3.868279        -1.264671
 H         1.790853         2.450456        -1.908587
 H         2.514237         0.975252         1.513494
