19
Iteration:  3092charge 0 multiplicity 1
 C        -0.056835         0.026770        -0.190691
 C         1.417134         0.115903        -0.067027
 O         2.184087        -1.078953         0.100757
 C         2.399773        -0.306116        -1.108624
 C         3.457028         0.857121        -0.659395
 C         3.679131         2.159859        -1.413010
 C         2.526183         3.071350        -1.047348
 O         1.847463         2.566126         0.196019
 C         2.320256         1.196288         0.467855
 H        -0.591432        -0.527106         0.616338
 H        -0.511136         0.983133        -0.389449
 H        -0.112398        -0.720964        -1.067648
 H         2.285846        -0.920948        -2.027646
 H         4.404570         0.529126        -0.127742
 H         4.722310         2.473438        -1.216103
 H         3.636841         1.989089        -2.425766
 H         2.846249         4.123735        -0.898952
 H         1.800186         3.117313        -1.918171
 H         2.333455         1.151660         1.560399
