19
Iteration:  1821charge 0 multiplicity 1
 C        -0.041827         0.001611        -0.214061
 C         1.404843         0.207956        -0.185748
 O         2.112623        -1.087649        -0.045317
 C         2.517450        -0.212294        -1.143382
 C         3.464920         0.876281        -0.401211
 C         3.634729         2.006836        -1.404915
 C         2.425222         2.907931        -1.106869
 O         1.985226         2.663834         0.259341
 C         2.263603         1.241272         0.553624
 H        -0.487066        -0.043910         0.848413
 H        -0.582099         0.876469        -0.734706
 H        -0.150966        -0.946461        -0.883994
 H         2.683721        -0.761465        -2.072818
 H         4.503175         0.576360        -0.030904
 H         4.568493         2.586033        -1.305750
 H         3.660354         1.829153        -2.419610
 H         2.640872         4.020529        -1.177616
 H         1.610617         2.645067        -1.806029
 H         2.193587         1.095069         1.623377
