19
Iteration:  3148
 C         0.016973         0.163067        -0.192958
 C         1.453299         0.199116        -0.205491
 O         2.108785        -1.067662        -0.072761
 C         2.493154        -0.127638        -1.092579
 C         3.565842         0.831718        -0.490800
 C         3.722498         2.047411        -1.357259
 C         2.160115         2.724462        -1.115731
 O         1.962122         2.602817         0.222556
 C         2.366248         1.215377         0.554584
 H        -0.169386        -0.237593         0.852912
 H        -0.427306         1.145714        -0.138611
 H        -0.579202        -0.456590        -0.974490
 H         2.472366        -0.483044        -2.138126
 H         4.338131         0.428198         0.245774
 H         4.500229         2.674647        -0.881061
 H         3.786598         1.919279        -2.359496
 H         2.148374         3.809199        -1.433287
 H         1.418607         2.126249        -1.786586
 H         2.278822         1.317057         1.645160
