19
Iteration:  1552
 C        -0.085493        -0.023255        -0.179987
 C         1.384089         0.083000        -0.042868
 O         2.239219        -1.134377         0.082653
 C         2.421935        -0.271646        -1.086569
 C         3.352913         0.775210        -0.593093
 C         3.711186         2.147764        -1.400177
 C         2.615424         3.106971        -1.067710
 O         1.844374         2.563456         0.055247
 C         2.297938         1.321230         0.533891
 H        -0.972040        -0.250204         0.496469
 H        -0.381823         1.017997        -0.456506
 H        -0.390629        -0.779301        -0.997182
 H         2.434513        -0.716631        -2.041378
 H         4.252910         0.344519        -0.159409
 H         4.599888         2.550904        -0.969420
 H         3.716204         1.995359        -2.434902
 H         2.890407         4.099874        -0.740558
 H         1.854294         3.316109        -1.871376
 H         2.517075         1.326344         1.635938
