19
Iteration:  1651
 C        -0.099267         0.062703        -0.150367
 C         1.385693         0.104049        -0.056992
 O         2.174423        -1.102008         0.028411
 C         2.400044        -0.213730        -1.122524
 C         3.493272         0.849040        -0.493794
 C         3.756958         2.169595        -1.260512
 C         2.446454         2.927840        -1.121274
 O         1.854270         2.492384         0.044393
 C         2.377892         1.274473         0.469788
 H        -0.826112         0.028491         0.771181
 H        -0.405095         1.080257        -0.573735
 H        -0.353645        -0.774877        -0.906196
 H         2.258420        -0.536690        -2.205801
 H         4.410707         0.349399        -0.191969
 H         4.645628         2.650774        -0.829458
 H         3.820152         2.064929        -2.435674
 H         2.725005         3.951387        -0.946595
 H         1.701943         2.924698        -1.932851
 H         2.663895         1.367501         1.544467
