19
Iteration:  3861
 C        -0.007694         0.086378        -0.207353
 C         1.491653         0.089313        -0.193428
 O         2.195551        -1.109416         0.183617
 C         2.658792        -0.349493        -1.000285
 C         3.452446         0.920235        -0.675770
 C         3.317008         1.999869        -1.663189
 C         2.809939         3.093294        -0.633894
 O         1.660561         2.539394         0.028835
 C         2.231043         1.267425         0.388103
 H        -0.417753         0.507725         0.742969
 H        -0.190575         0.922093        -0.859062
 H        -0.647156        -0.737817        -0.680489
 H         2.531993        -0.969598        -1.885987
 H         4.412843         0.802631        -0.143150
 H         4.170881         2.462942        -2.145558
 H         2.591679         1.713716        -2.376718
 H         3.576557         3.380391         0.086960
 H         2.453699         4.025696        -1.128310
 H         2.608598         1.167250         1.446741
