19
Iteration:  2539
 C        -0.023812        -0.016258        -0.309275
 C         1.412445         0.112988        -0.171129
 O         2.203486        -1.124831         0.245889
 C         2.499965        -0.274039        -0.997945
 C         3.373886         0.825748        -0.616348
 C         3.536209         2.027563        -1.497807
 C         2.702254         3.236928        -0.812464
 O         1.755129         2.584853         0.015473
 C         2.311530         1.177825         0.402829
 H        -0.347659        -0.492679         0.684724
 H        -0.541250         0.959394        -0.353792
 H        -0.329937        -0.680756        -1.145553
 H         2.474773        -0.744598        -1.971306
 H         4.320677         0.508366        -0.199031
 H         4.602614         2.291307        -1.711774
 H         2.928324         1.979316        -2.457076
 H         3.485104         3.904368        -0.320148
 H         2.080292         3.934163        -1.530026
 H         2.467438         1.333070         1.479504
