19
Iteration:  1808charge 0 multiplicity 1
 C        -0.031868         0.047664        -0.266744
 C         1.446548         0.199471        -0.238229
 O         2.074032        -1.016581         0.062697
 C         2.612809        -0.235863        -1.076100
 C         3.453693         0.755580        -0.494524
 C         3.597988         2.072512        -1.394708
 C         2.367771         2.963891        -1.058059
 O         1.988148         2.595168         0.258194
 C         2.291683         1.248778         0.449577
 H        -0.400668        -0.319751         0.748641
 H        -0.625102         0.885749        -0.743175
 H        -0.288676        -0.874516        -0.784343
 H         2.670308        -0.561718        -2.054201
 H         4.294889         0.300085         0.051899
 H         4.622809         2.470983        -1.185915
 H         3.462448         1.654756        -2.321482
 H         2.567727         4.084418        -1.074597
 H         1.567388         2.813388        -1.723399
 H         2.505392         1.117942         1.530521
