19
Iteration:  3495charge 0 multiplicity 1
 C        -0.049633        -0.108128        -0.308606
 C         1.365816         0.173010        -0.080215
 O         2.181974        -1.081446         0.075952
 C         2.477850        -0.247637        -0.991105
 C         3.416543         0.857848        -0.513070
 C         3.480983         2.066050        -1.587611
 C         2.623896         3.153419        -0.968405
 O         1.952479         2.549572         0.196900
 C         2.335823         1.239857         0.456032
 H        -0.703090        -0.133619         0.630739
 H        -0.521265         0.769890        -0.727173
 H        -0.287241        -1.123235        -0.807403
 H         2.223057        -0.661689        -1.921298
 H         4.446184         0.659806        -0.163540
 H         4.500501         2.316496        -1.569806
 H         3.215843         1.681787        -2.560346
 H         3.248202         3.969827        -0.556044
 H         1.826433         3.487554        -1.677725
 H         2.321498         1.376190         1.536596
