19
Iteration:  3952
 C        -0.136772        -0.133449        -0.020446
 C         1.317875         0.070193        -0.218546
 O         2.192555        -1.027903         0.040646
 C         2.477369        -0.190307        -1.156997
 C         3.431964         0.846310        -0.509196
 C         3.700649         2.060087        -1.468615
 C         2.607843         3.141988        -1.043162
 O         1.922795         2.613378         0.179642
 C         2.207190         1.219554         0.445626
 H        -0.328623        -0.744784         0.847685
 H        -0.752480         0.846049        -0.074570
 H        -0.353438        -0.726058        -0.980562
 H         2.571661        -0.773533        -2.085484
 H         4.356573         0.438444        -0.060232
 H         4.675325         2.499127        -1.333685
 H         3.567309         1.791235        -2.502791
 H         3.207307         3.993157        -0.774120
 H         1.779152         3.455329        -1.787966
 H         2.388700         1.131775         1.512195
