19
Iteration:  4591charge 0 multiplicity 1
 C        -0.093662        -0.074204        -0.106711
 C         1.345653         0.156383        -0.172904
 O         2.154690        -1.000284        -0.004581
 C         2.418405        -0.163699        -1.208632
 C         3.452458         0.825515        -0.604394
 C         3.735960         2.179168        -1.273206
 C         2.452176         2.929141        -1.059111
 O         2.019993         2.553243         0.213748
 C         2.296723         1.249660         0.440875
 H        -0.373259        -0.469167         0.964464
 H        -0.681165         0.855940        -0.132485
 H        -0.437373        -0.814137        -0.876632
 H         2.233123        -0.737763        -2.145672
 H         4.348651         0.205772        -0.369035
 H         4.663054         2.547066        -0.690305
 H         3.894264         1.951986        -2.352172
 H         2.599275         4.042140        -1.066336
 H         1.595615         2.577360        -1.784863
 H         2.308475         1.223959         1.541914
