19
Iteration:  2236
 C        -0.017697         0.110659        -0.229500
 C         1.465575         0.138396        -0.176700
 O         2.141501        -1.085996         0.018845
 C         2.428533        -0.251440        -1.192554
 C         3.420485         0.859954        -0.485211
 C         3.671228         2.131606        -1.311519
 C         2.369636         2.940825        -1.160331
 O         1.955124         2.527684         0.254597
 C         2.340164         1.212941         0.548776
 H        -0.482400         0.259543         0.770420
 H        -0.376017         0.997720        -0.773999
 H        -0.413553        -0.869688        -0.763312
 H         2.443119        -0.635281        -2.173170
 H         4.395091         0.376856        -0.101971
 H         4.487267         2.669774        -0.791077
 H         3.956442         1.956860        -2.313970
 H         2.407963         4.044739        -1.247546
 H         1.602572         2.580790        -1.869824
 H         2.532567         1.279813         1.606615
