19
Iteration:   836charge 0 multiplicity 1
 C        -0.116281         0.096351        -0.209817
 C         1.496324         0.119212        -0.096168
 O         2.100942        -1.238335        -0.079519
 C         2.498329        -0.128965        -1.042851
 C         3.471644         0.850362        -0.438943
 C         3.618768         2.031644        -1.372966
 C         2.411529         2.990546        -1.167068
 O         1.948395         2.610531         0.166372
 C         2.377239         1.276577         0.593035
 H        -0.428494        -0.116922         0.829388
 H        -0.415967         1.125216        -0.430142
 H        -0.662643        -0.459682        -0.990109
 H         2.343130        -0.476802        -2.048434
 H         4.374452         0.368969        -0.133579
 H         4.614490         2.494369        -1.228627
 H         3.636683         1.714799        -2.461012
 H         2.702505         4.032313        -1.168171
 H         1.608061         2.732033        -1.945730
 H         2.582603         1.244261         1.636096
