19
Iteration:  3621charge 0 multiplicity 1
 C        -0.140176        -0.203350        -0.164185
 C         1.386886         0.122877        -0.179741
 O         2.250370        -1.116247         0.144234
 C         2.445924        -0.362105        -1.044226
 C         3.350760         0.837588        -0.571294
 C         3.466688         2.064862        -1.584360
 C         2.890470         3.228940        -0.788657
 O         1.837412         2.679184         0.063945
 C         2.226063         1.356020         0.365728
 H        -0.283848        -0.657001         0.767595
 H        -0.810538         0.598406        -0.391260
 H        -0.332153        -0.950772        -0.943286
 H         2.624660        -0.947554        -1.977817
 H         4.314669         0.794417        -0.057163
 H         4.545800         2.226467        -1.901627
 H         2.788527         1.945777        -2.454985
 H         3.591974         3.799039        -0.108493
 H         2.388598         3.988752        -1.413883
 H         2.477139         1.108020         1.378776
