19
Iteration:    14
 C        -0.107190         0.223899        -0.137700
 C         1.408445         0.282086        -0.253214
 O         2.004833        -1.175222         0.006624
 C         2.536582        -0.386091        -1.084505
 C         3.512991         0.735951        -0.605512
 C         3.648662         2.127975        -1.445392
 C         2.431443         2.953984        -1.132709
 O         1.921121         2.667654         0.313162
 C         2.429461         1.171772         0.571715
 H        -0.161741        -0.220151         0.846373
 H        -0.776941         1.112341        -0.186101
 H        -0.549833        -0.533651        -0.799660
 H         2.688425        -1.023455        -2.083240
 H         4.643788         0.434158        -0.370130
 H         4.528213         2.607913        -0.869574
 H         3.929406         2.080173        -2.484295
 H         2.625081         4.076469        -1.227924
 H         1.625286         2.722382        -1.830338
 H         2.536178         0.997038         1.568014
