19
Iteration:  1585charge 0 multiplicity 1
 C        -0.127603        -0.147594        -0.036422
 C         1.394914         0.163817        -0.201263
 O         2.132507        -1.051042         0.061530
 C         2.493542        -0.249424        -1.108827
 C         3.412009         0.819660        -0.569461
 C         3.743285         2.124092        -1.383827
 C         2.647654         3.057695        -1.035927
 O         1.829450         2.560133         0.034062
 C         2.220318         1.314402         0.479451
 H        -0.299735        -0.598537         1.016052
 H        -0.695032         0.835604        -0.114477
 H        -0.504463        -0.729544        -0.960773
 H         2.624887        -0.749565        -2.050095
 H         4.234626         0.341244        -0.061689
 H         4.652497         2.593516        -1.028591
 H         3.953043         2.052314        -2.433727
 H         3.104650         3.944384        -0.630621
 H         2.079809         3.294616        -1.965077
 H         2.274969         1.325645         1.597740
