19
Iteration:  1527
 C        -0.050884         0.094064        -0.235690
 C         1.418349         0.147904        -0.124812
 O         2.170085        -1.117715         0.096123
 C         2.519362        -0.205335        -1.047552
 C         3.471347         0.816689        -0.511530
 C         3.674496         2.069122        -1.422607
 C         2.470214         3.059783        -1.092745
 O         1.815406         2.504926         0.163085
 C         2.339571         1.222314         0.456805
 H        -0.676956         0.083344         0.661398
 H        -0.396473         1.038801        -0.718875
 H        -0.453881        -0.774771        -0.782103
 H         2.366664        -0.490774        -2.085819
 H         4.345691         0.434032         0.077138
 H         4.665502         2.581986        -1.270244
 H         3.490524         1.660567        -2.480534
 H         2.709311         4.062311        -0.794146
 H         1.747873         3.093281        -1.898769
 H         2.558294         1.103031         1.515595
