19
Iteration:   453charge 0 multiplicity 1
 C        -0.158138         0.197498        -0.085817
 C         1.302467         0.111519        -0.253562
 O         2.259493        -1.079684        -0.020193
 C         2.504891        -0.300140        -1.170872
 C         3.444403         0.793283        -0.532425
 C         3.649934         2.062575        -1.341223
 C         2.434204         2.961777        -1.050745
 O         2.065988         2.603408         0.276688
 C         2.221549         1.193665         0.416130
 H        -0.414304         0.320260         0.979239
 H        -0.324574         1.259645        -0.383571
 H        -0.860626        -0.497363        -0.567114
 H         2.612017        -0.789257        -2.083946
 H         4.328123         0.265158        -0.235813
 H         4.527884         2.566169        -0.921102
 H         3.826740         1.968906        -2.446624
 H         2.546412         4.034462        -1.214129
 H         1.742537         2.702129        -1.856418
 H         2.256126         0.991685         1.477387
