19
Iteration:  2191
 C        -0.035885         0.252343        -0.139881
 C         1.462067         0.082719        -0.146251
 O         2.144820        -1.133891         0.008978
 C         2.544149        -0.242217        -1.124311
 C         3.390637         0.846727        -0.525109
 C         3.710814         2.211799        -1.271566
 C         2.383139         2.932484        -1.151001
 O         1.850510         2.453898         0.121849
 C         2.358691         1.147829         0.468539
 H        -0.458528         0.040406         0.900005
 H        -0.498843         1.305010        -0.246529
 H        -0.541957        -0.502892        -0.837033
 H         2.297798        -0.662756        -2.108120
 H         4.394584         0.590109        -0.090829
 H         4.475200         2.845444        -0.795094
 H         4.012453         1.929531        -2.264125
 H         2.583214         4.025350        -0.898741
 H         1.691333         2.911948        -2.012204
 H         2.588819         1.053005         1.558949
