19
Iteration:  1567
 C        -0.092377        -0.067055        -0.159295
 C         1.386868         0.083470        -0.057205
 O         2.197548        -1.111080         0.097830
 C         2.379068        -0.272271        -1.075302
 C         3.417672         0.863435        -0.551402
 C         3.774574         2.074354        -1.322047
 C         2.578787         3.197154        -1.043833
 O         1.804126         2.603419         0.068222
 C         2.284116         1.237721         0.342330
 H        -0.238160        -0.496697         0.782976
 H        -0.561822         0.895598        -0.363442
 H        -0.275763        -0.704683        -0.979892
 H         2.061669        -0.699771        -2.109354
 H         4.281952         0.365315        -0.089869
 H         4.830856         2.341413        -1.134174
 H         3.800781         1.830878        -2.385409
 H         2.993330         4.211430        -0.757183
 H         1.986718         3.207366        -1.994536
 H         2.575541         1.217673         1.406040
