19
Iteration:  4474charge 0 multiplicity 1
 C        -0.091464         0.108967        -0.345470
 C         1.378095         0.150362        -0.230374
 O         2.176868        -1.081592         0.053799
 C         2.545217        -0.328588        -1.084149
 C         3.463937         0.756317        -0.634894
 C         3.592632         2.173799        -1.366365
 C         2.240216         2.935750        -0.974641
 O         2.104754         2.635804         0.382729
 C         2.377345         1.221632         0.471847
 H        -0.532689        -0.111352         0.601125
 H        -0.487636         1.118377        -0.767929
 H        -0.393710        -0.736712        -0.978092
 H         2.307651        -0.795802        -2.082786
 H         4.448447         0.254762        -0.396022
 H         4.420414         2.732244        -0.902004
 H         3.650891         2.236859        -2.476683
 H         2.138738         4.041665        -1.159561
 H         1.496237         2.547680        -1.803397
 H         2.617104         1.073225         1.589714
