19
Iteration:  2367charge 0 multiplicity 1
 C        -0.038029         0.220298        -0.228294
 C         1.487722         0.157177        -0.092289
 O         2.141430        -1.137628        -0.085429
 C         2.585119        -0.204077        -1.111067
 C         3.533199         0.860036        -0.407413
 C         3.589215         2.026953        -1.367676
 C         2.325004         2.872465        -1.091696
 O         1.902892         2.592076         0.198193
 C         2.329400         1.231614         0.542552
 H        -0.647025        -0.199786         0.605139
 H        -0.336477         1.242008        -0.417070
 H        -0.473663        -0.423910        -1.146397
 H         2.472694        -0.655055        -2.090791
 H         4.384656         0.343192         0.044791
 H         4.519512         2.549826        -1.123314
 H         3.562756         1.716917        -2.492814
 H         2.399001         3.982051        -1.225621
 H         1.625741         2.428037        -1.885636
 H         2.282829         1.218796         1.631567
