19
Iteration:  1273
 C        -0.033216         0.197715        -0.094053
 C         1.445208         0.171171        -0.219833
 O         2.081207        -1.136216        -0.118291
 C         2.603159        -0.225013        -1.115442
 C         3.485845         0.835966        -0.429913
 C         3.650652         2.108056        -1.290361
 C         2.278575         2.767279        -1.178105
 O         1.916252         2.662933         0.225773
 C         2.337168         1.191919         0.487803
 H        -0.214961         0.044891         0.977290
 H        -0.352211         1.188267        -0.354086
 H        -0.339416        -0.692254        -0.657682
 H         2.798081        -0.635623        -2.065565
 H         4.437799         0.500896         0.033630
 H         4.429590         2.743602        -0.874433
 H         3.924297         1.811659        -2.269442
 H         2.480862         3.863095        -1.428426
 H         1.457306         2.351896        -1.906160
 H         2.439725         1.277139         1.529787
