19
Iteration:  3600charge 0 multiplicity 1
 C        -0.106237        -0.110040        -0.241702
 C         1.394459         0.001729        -0.067538
 O         2.231896        -1.064178         0.184416
 C         2.490952        -0.235689        -0.978299
 C         3.389508         0.895263        -0.650369
 C         3.402380         2.047423        -1.644398
 C         2.892594         3.226916        -0.735959
 O         1.796780         2.548326        -0.016701
 C         2.230966         1.237961         0.470303
 H        -0.586506        -0.393176         0.615577
 H        -0.297971         0.864689        -0.626122
 H        -0.235573        -0.721547        -1.164291
 H         2.430625        -0.735711        -1.975335
 H         4.386096         0.599739        -0.312489
 H         4.376731         2.491427        -1.990260
 H         2.713506         1.744434        -2.525577
 H         3.711863         3.720315        -0.163768
 H         2.385530         4.046401        -1.275003
 H         2.548351         1.316453         1.542107
