19
Iteration:  1384
 C        -0.049028         0.110587        -0.112545
 C         1.424289         0.160182        -0.264407
 O         2.155145        -1.053341         0.045310
 C         2.589746        -0.234936        -1.082399
 C         3.480012         0.768846        -0.437998
 C         3.582665         2.070563        -1.423724
 C         2.464867         2.990820        -1.070597
 O         1.901765         2.542532         0.164140
 C         2.239190         1.231877         0.415916
 H        -0.366470        -0.331782         0.857743
 H        -0.583028         1.090347        -0.241587
 H        -0.629460        -0.476282        -0.820953
 H         2.736518        -0.761787        -2.105921
 H         4.462218         0.678128         0.117155
 H         4.506838         2.503362        -1.015928
 H         3.650121         1.816505        -2.465675
 H         2.915998         3.997956        -0.939239
 H         1.646137         2.873024        -1.884720
 H         2.203293         1.053884         1.484287
