19
Iteration:  2206
 C        -0.160352         0.259271        -0.147931
 C         1.421169         0.074395        -0.164369
 O         2.235369        -1.122796         0.028326
 C         2.458776        -0.356047        -1.164051
 C         3.546604         0.815072        -0.591313
 C         3.711136         2.202657        -1.265815
 C         2.375502         2.991151        -1.105528
 O         1.817856         2.491833         0.177961
 C         2.362657         1.205827         0.481825
 H        -0.540487         0.273416         0.848163
 H        -0.163409         1.211349        -0.550040
 H        -0.736348        -0.435764        -0.810116
 H         2.605344        -0.877842        -2.107676
 H         4.434648         0.223957        -0.247897
 H         4.539624         2.669692        -0.551945
 H         4.012325         2.250250        -2.338357
 H         2.393875         4.039314        -1.163900
 H         1.697994         2.616026        -1.859620
 H         2.550722         1.255470         1.595431
