19
Iteration:   592
 C        -0.140933         0.181778        -0.305343
 C         1.362240         0.116914        -0.076793
 O         2.234533        -1.159916         0.016283
 C         2.415433        -0.212035        -1.068590
 C         3.458184         0.814344        -0.576188
 C         3.693723         2.048887        -1.440031
 C         2.365178         2.901742        -1.089460
 O         2.024279         2.644138         0.309125
 C         2.350131         1.234391         0.517957
 H        -0.656963        -0.246872         0.545034
 H        -0.234539         1.279346        -0.078186
 H        -0.428477        -0.203560        -1.292673
 H         2.187196        -0.601736        -2.050399
 H         4.305770         0.213794        -0.260629
 H         4.673126         2.488859        -1.223264
 H         3.575574         1.859330        -2.505314
 H         2.449074         4.007585        -1.171731
 H         1.509924         2.688388        -1.649472
 H         2.670930         1.179092         1.578201
