19
Iteration:  1893charge 0 multiplicity 1
 C        -0.084716         0.209195        -0.088269
 C         1.436301         0.117225        -0.141306
 O         2.148242        -1.072462        -0.011397
 C         2.517866        -0.190256        -1.197155
 C         3.513856         0.796964        -0.542572
 C         3.714221         2.202031        -1.181053
 C         2.373251         2.864423        -1.142409
 O         1.811670         2.491793         0.120995
 C         2.331336         1.179891         0.446538
 H        -0.405377        -0.167450         0.893994
 H        -0.341223         1.281812        -0.258114
 H        -0.521546        -0.372252        -0.902508
 H         2.604542        -0.947704        -1.945909
 H         4.435875         0.413430        -0.190380
 H         4.511875         2.814656        -0.622707
 H         4.249143         1.936111        -2.202067
 H         2.513259         3.962628        -1.253019
 H         1.681427         2.476130        -2.045884
 H         2.515322         1.183317         1.553254
