19
Iteration:  4376charge 0 multiplicity 1
 C        -0.064722         0.168320        -0.237499
 C         1.440514         0.236668        -0.237003
 O         2.196068        -1.115715         0.051566
 C         2.529995        -0.276675        -1.111939
 C         3.481956         0.795611        -0.560278
 C         3.539637         2.103114        -1.450508
 C         2.439827         3.038903        -0.872111
 O         1.808442         2.448830         0.223323
 C         2.378982         1.165114         0.442776
 H        -0.316850        -0.092177         0.716509
 H        -0.494948         1.175080        -0.504246
 H        -0.420546        -0.617261        -0.926261
 H         2.509560        -0.743308        -2.151982
 H         4.399630         0.800178         0.031560
 H         4.535022         2.613266        -1.366463
 H         3.469089         1.705561        -2.539901
 H         2.994869         3.956030        -0.675777
 H         1.703684         3.433594        -1.555287
 H         2.822259         1.103595         1.523685
