19
Iteration:  4176charge 0 multiplicity 1
 C        -0.041505         0.010615        -0.312284
 C         1.391041         0.110010        -0.257527
 O         2.151626        -1.084181         0.039427
 C         2.572948        -0.278609        -1.082064
 C         3.475978         0.834400        -0.526103
 C         3.522062         1.990923        -1.503527
 C         2.518863         3.093368        -0.870299
 O         1.917709         2.635080         0.368074
 C         2.276430         1.299925         0.420454
 H        -0.310058        -0.336956         0.801966
 H        -0.580873         0.902322        -0.396651
 H        -0.400759        -0.803030        -1.030082
 H         2.751310        -0.579517        -2.169670
 H         4.337404         0.380232        -0.037861
 H         4.493422         2.490837        -1.754712
 H         3.141439         1.681501        -2.495591
 H         2.864830         4.135918        -0.971728
 H         1.740137         3.113860        -1.681188
 H         2.497863         0.923204         1.430997
