19
Iteration:   559
 C         0.011384         0.202826        -0.145083
 C         1.461892         0.184889        -0.288882
 O         1.960558        -1.058937         0.022163
 C         2.562649        -0.266100        -1.015066
 C         3.530048         0.797431        -0.650453
 C         3.651559         2.087197        -1.386434
 C         2.292674         2.886039        -1.107322
 O         1.977987         2.543398         0.267161
 C         2.358222         1.183357         0.486221
 H        -0.149478        -0.403293         0.743294
 H        -0.340447         1.237777         0.113693
 H        -0.757402        -0.088319        -0.884446
 H         2.636217        -0.793304        -1.940238
 H         4.398866         0.324990        -0.273363
 H         4.413230         2.640687        -0.801986
 H         3.956945         2.079402        -2.416266
 H         2.604298         3.940940        -0.968808
 H         1.548870         2.829463        -1.874886
 H         2.481141         1.015792         1.584444
