19
Iteration:  4797charge 0 multiplicity 1
 C        -0.140140        -0.175969        -0.209197
 C         1.343042         0.008899        -0.136211
 O         2.273572        -0.993096         0.149009
 C         2.447363        -0.354567        -1.108131
 C         3.284971         0.865894        -0.647128
 C         3.509602         2.105393        -1.568883
 C         2.869889         3.283196        -0.665524
 O         1.853921         2.588646         0.055492
 C         2.223753         1.257976         0.313349
 H        -0.432810        -0.334940         0.941948
 H        -0.469651         0.712653        -0.617683
 H        -0.437262        -1.078629        -0.754818
 H         2.679559        -0.969523        -1.934863
 H         4.178157         0.454648        -0.200113
 H         4.607764         2.352517        -1.705723
 H         3.009114         2.014453        -2.525458
 H         3.837275         3.525322        -0.051324
 H         2.384602         4.168144        -1.011836
 H         2.367938         1.186831         1.471349
