19
Iteration:  2247charge 0 multiplicity 1
 C        -0.079204         0.031811        -0.259582
 C         1.373391         0.184038        -0.093599
 O         2.110111        -1.073687        -0.085607
 C         2.494259        -0.161877        -1.088578
 C         3.535705         0.762393        -0.468095
 C         3.661689         2.106357        -1.333821
 C         2.319977         2.891210        -1.107397
 O         1.987466         2.640838         0.214789
 C         2.378305         1.215660         0.551915
 H        -0.565961         0.051465         0.741880
 H        -0.481557         0.841949        -0.879211
 H        -0.411781        -0.988100        -0.762903
 H         2.524113        -0.660579        -2.016652
 H         4.595166         0.517464        -0.145585
 H         4.523983         2.709068        -1.098352
 H         3.820869         1.818928        -2.346450
 H         2.436792         3.994160        -1.078888
 H         1.565860         2.620994        -1.883650
 H         2.456587         1.114926         1.624755
