19
Iteration:    90charge 0 multiplicity 1
 C         0.051400         0.124322        -0.277923
 C         1.431947         0.142607         0.019375
 O         2.000297        -1.159162        -0.039576
 C         2.372664        -0.139278        -1.065711
 C         3.395253         0.831471        -0.558309
 C         3.622972         2.078503        -1.384534
 C         2.390315         2.927347        -1.161395
 O         2.044824         2.559706         0.252867
 C         2.465610         1.240123         0.613446
 H        -0.725383        -0.030171         0.432928
 H        -0.244907         0.978736        -0.913129
 H        -0.066571        -0.684850        -1.008533
 H         2.097850        -0.259011        -2.195694
 H         4.363958         0.280774        -0.450829
 H         4.593978         2.581966        -1.080486
 H         3.789803         1.717718        -2.379532
 H         2.604045         4.036972        -1.171038
 H         1.577028         2.743796        -1.835925
 H         2.758331         1.207632         1.611445
