19
Iteration:  1287charge 0 multiplicity 1
 C        -0.059798         0.076636        -0.065618
 C         1.418921         0.194725        -0.256057
 O         2.059690        -1.032483        -0.072899
 C         2.605142        -0.181816        -1.110020
 C         3.512047         0.812539        -0.421383
 C         3.650539         2.111651        -1.287169
 C         2.346116         2.880540        -1.277659
 O         1.973660         2.545482         0.176837
 C         2.328371         1.214386         0.551212
 H        -0.185461         0.035314         1.099430
 H        -0.796892         0.869367        -0.499138
 H        -0.656403        -0.797309        -0.441861
 H         2.560543        -0.563824        -2.209499
 H         4.436760         0.355356         0.055388
 H         4.281059         2.801430        -0.657672
 H         4.005301         2.028282        -2.277486
 H         2.364128         3.958780        -1.323406
 H         1.574536         2.484860        -1.973557
 H         2.503266         0.765394         1.588219
