19
Iteration:  1134
 C        -0.049999         0.027774        -0.302484
 C         1.421948         0.077909        -0.067674
 O         2.073089        -1.174944         0.050279
 C         2.437514        -0.192080        -1.093220
 C         3.495078         0.852795        -0.563617
 C         3.621368         2.136941        -1.381144
 C         2.400598         3.026129        -1.120029
 O         1.999083         2.624070         0.229756
 C         2.375845         1.204752         0.557804
 H        -0.742388         0.074943         0.533975
 H        -0.396889         0.860254        -0.886550
 H        -0.243724        -0.922304        -0.753668
 H         2.363276        -0.643576        -2.025950
 H         4.482086         0.508497        -0.216574
 H         4.552540         2.690620        -1.016231
 H         3.764253         1.943886        -2.423256
 H         2.666811         4.056566        -1.089582
 H         1.635026         2.828313        -1.968610
 H         2.569164         1.249788         1.646925
