19
Iteration:  4377
 C        -0.064480         0.161384        -0.232092
 C         1.440809         0.228897        -0.244129
 O         2.190210        -1.112328         0.051624
 C         2.532045        -0.270268        -1.116190
 C         3.485045         0.801535        -0.549024
 C         3.538756         2.108286        -1.455312
 C         2.440847         3.035967        -0.880899
 O         1.811494         2.450996         0.227372
 C         2.372510         1.159061         0.448734
 H        -0.321779        -0.085655         0.726498
 H        -0.499506         1.197568        -0.530192
 H        -0.386664        -0.600713        -0.919770
 H         2.517416        -0.738596        -2.159608
 H         4.405232         0.783120         0.023225
 H         4.555781         2.620747        -1.399733
 H         3.431659         1.683422        -2.526344
 H         2.991455         3.951079        -0.684111
 H         1.737587         3.428487        -1.542434
 H         2.822962         1.080751         1.527097
