19
Iteration:   297charge 0 multiplicity 1
 C        -0.021896         0.307750        -0.251049
 C         1.429772         0.129169         0.005830
 O         2.224162        -1.075999        -0.084041
 C         2.353696        -0.083483        -1.114038
 C         3.407513         0.859033        -0.533478
 C         3.652906         2.005137        -1.461723
 C         2.346633         2.814369        -1.058789
 O         2.002741         2.472191         0.277595
 C         2.325189         1.166353         0.582701
 H        -0.557311         0.428107         0.696551
 H        -0.071766         1.177372        -0.930052
 H        -0.384009        -0.588931        -0.783657
 H         2.148180        -0.466762        -2.239957
 H         4.279085         0.428843        -0.208008
 H         4.690997         2.452718        -1.206586
 H         3.880529         1.610009        -2.418790
 H         2.501367         3.921154        -1.256185
 H         1.573950         2.597075        -1.792705
 H         2.617966         1.163716         1.646547
