19
Iteration:  4982
 C        -0.130468         0.120415        -0.210308
 C         1.434402         0.103135        -0.261146
 O         2.068020        -1.116726         0.022384
 C         2.544575        -0.222008        -1.202941
 C         3.540413         0.797915        -0.554791
 C         3.642746         2.205733        -1.317377
 C         2.191206         2.892261        -1.055669
 O         2.132598         2.606843         0.336106
 C         2.391635         1.216047         0.461539
 H        -0.472983        -0.081497         0.877453
 H        -0.533685         1.028970        -0.484952
 H        -0.554088        -0.643331        -0.785531
 H         2.289691        -0.877056        -2.021320
 H         4.531718         0.407732        -0.333355
 H         4.488737         2.870543        -0.925608
 H         3.824256         2.009234        -2.331300
 H         2.182591         4.007754        -1.250116
 H         1.380983         2.374661        -1.712411
 H         2.520787         1.146223         1.551948
