19
Iteration:  2035charge 0 multiplicity 1
 C         0.021117         0.224787        -0.330326
 C         1.487055         0.186501        -0.164310
 O         2.092311        -1.155446         0.034933
 C         2.609983        -0.176399        -0.980130
 C         3.531902         0.860199        -0.491994
 C         3.531079         2.019770        -1.466802
 C         2.379745         2.916344        -1.102669
 O         1.834549         2.509205         0.288402
 C         2.352404         1.224122         0.544855
 H        -0.585202         0.339475         0.675719
 H        -0.287988         0.894403        -1.297294
 H        -0.485169        -0.690970        -0.731606
 H         2.737267        -0.504943        -1.994017
 H         4.441483         0.515893        -0.119073
 H         4.298816         2.651588        -1.627126
 H         3.381086         1.750686        -2.555869
 H         2.757883         3.943760        -0.895198
 H         1.493492         2.990409        -1.673091
 H         2.691544         0.827373         1.581130
