19
Iteration:  2147charge 0 multiplicity 1
 C        -0.079860        -0.020579        -0.166206
 C         1.355163         0.179271        -0.100265
 O         2.181976        -1.097146        -0.131462
 C         2.469136        -0.069721        -1.059474
 C         3.432881         0.922242        -0.390407
 C         3.651520         2.012450        -1.346945
 C         2.405275         2.864486        -1.175340
 O         2.012257         2.610491         0.176502
 C         2.320245         1.228374         0.524083
 H        -0.504747        -0.545481         0.774575
 H        -0.625776         1.029681        -0.141128
 H        -0.244682        -0.572259        -1.113598
 H         2.444931        -0.357097        -2.154114
 H         4.304318         0.420745         0.087386
 H         4.512745         2.629544        -0.974569
 H         3.934990         1.771510        -2.369795
 H         2.550323         3.971492        -1.394618
 H         1.610924         2.498153        -1.830431
 H         2.493077         0.992166         1.598696
