19
Iteration:   299
 C        -0.023184         0.315761        -0.247196
 C         1.425774         0.136314         0.009387
 O         2.220752        -1.073497        -0.091401
 C         2.382856        -0.088608        -1.109457
 C         3.386918         0.855076        -0.533933
 C         3.647533         2.011116        -1.471962
 C         2.334432         2.813434        -1.067048
 O         2.008187         2.471771         0.291042
 C         2.333829         1.167660         0.558231
 H        -0.532255         0.420052         0.692165
 H        -0.110209         1.170740        -0.936043
 H        -0.343762        -0.598722        -0.770743
 H         2.133427        -0.435763        -2.141865
 H         4.321298         0.420523        -0.135212
 H         4.636659         2.388322        -1.086908
 H         3.932938         1.559658        -2.401269
 H         2.549253         3.897969        -1.198163
 H         1.528189         2.565747        -1.810132
 H         2.598511         1.153676         1.573238
