19
Iteration:  2857
 C        -0.082679        -0.052554        -0.285166
 C         1.409505         0.143133        -0.072540
 O         2.231360        -1.034449         0.192622
 C         2.558043        -0.379315        -1.031711
 C         3.347207         0.832820        -0.669595
 C         3.450430         2.101455        -1.615790
 C         2.818267         3.187893        -0.649397
 O         1.749517         2.551819        -0.018679
 C         2.275758         1.220654         0.429412
 H        -0.711781         0.097334         0.615197
 H        -0.412250         0.680791        -0.991048
 H        -0.367521        -1.064625        -0.552690
 H         2.650090        -0.961538        -1.969292
 H         4.314628         0.513512        -0.480974
 H         4.463298         2.128816        -1.927856
 H         2.815317         2.116365        -2.448834
 H         3.538757         3.539473         0.105512
 H         2.303918         4.082219        -1.197242
 H         2.620893         1.386230         1.431175
