19
Iteration:  1174charge 0 multiplicity 1
 C        -0.160895         0.100229        -0.309637
 C         1.375978         0.197631        -0.289233
 O         2.208570        -1.031989         0.048270
 C         2.610167        -0.213911        -1.031827
 C         3.490246         0.825941        -0.407491
 C         3.512983         2.037158        -1.427340
 C         2.316612         2.921563        -1.101844
 O         2.117705         2.617527         0.265001
 C         2.272474         1.146732         0.521448
 H        -0.262738        -0.375092         0.696659
 H        -0.491402         1.165277        -0.372177
 H        -0.551581        -0.591587        -1.142731
 H         2.623478        -0.774879        -1.985304
 H         4.511024         0.492087        -0.162816
 H         4.382117         2.606696        -1.238886
 H         3.544916         1.617945        -2.427333
 H         2.664409         4.018301        -1.115626
 H         1.394708         2.848212        -1.644802
 H         2.195277         0.891231         1.566306
