19
Iteration:  3552charge 0 multiplicity 1
 C        -0.051036         0.207097        -0.255223
 C         1.482549         0.003658        -0.128788
 O         2.171752        -1.151248         0.213496
 C         2.642623        -0.304861        -1.041870
 C         3.420965         0.909952        -0.618210
 C         3.362498         2.090805        -1.594733
 C         2.690532         3.165650        -0.788425
 O         1.737192         2.459024         0.072722
 C         2.305047         1.185048         0.389203
 H        -0.339321         0.342159         0.821225
 H        -0.176736         1.074263        -0.928185
 H        -0.497247        -0.606215        -0.742578
 H         2.901681        -1.042723        -1.803671
 H         4.476711         0.631837        -0.321162
 H         4.410850         2.153442        -2.004231
 H         2.658244         1.851439        -2.349214
 H         3.372967         3.794582        -0.132845
 H         2.192913         3.881317        -1.460990
 H         2.443776         1.343365         1.430500
