19
Iteration:   769charge 0 multiplicity 1
 C        -0.155349         0.109684        -0.075645
 C         1.299087         0.143381        -0.236373
 O         2.084674        -1.084384         0.003383
 C         2.573516        -0.311150        -1.103092
 C         3.535093         0.828317        -0.602875
 C         3.697484         2.130256        -1.344582
 C         2.410385         2.908577        -1.198989
 O         2.057202         2.622188         0.245631
 C         2.259688         1.223201         0.503076
 H        -0.389256        -0.677886         0.631070
 H        -0.541100         1.108962         0.262486
 H        -0.676715        -0.080665        -1.031497
 H         2.654511        -0.793066        -2.052475
 H         4.468106         0.543947        -0.153244
 H         4.382100         2.642182        -0.689332
 H         4.289833         2.072595        -2.303957
 H         2.378854         4.016242        -1.125964
 H         1.528421         2.471214        -1.780297
 H         2.431377         1.150733         1.586127
