19
Iteration:    39charge 0 multiplicity 1
 C        -0.026500         0.193928        -0.135284
 C         1.383727         0.112664        -0.239108
 O         2.006425        -1.090471         0.064867
 C         2.549323        -0.347456        -1.118918
 C         3.457207         0.807087        -0.519718
 C         3.610653         2.117293        -1.398203
 C         2.420822         3.003512        -1.017156
 O         2.077462         2.554806         0.224021
 C         2.298517         1.205616         0.337816
 H        -0.205806        -0.253673         0.876020
 H        -0.361714         1.267707        -0.109991
 H        -0.745909        -0.254493        -0.848839
 H         2.590732        -0.981861        -2.050121
 H         4.436265         0.604933         0.084102
 H         4.547840         2.632919        -1.064177
 H         3.730756         1.889546        -2.490668
 H         2.598839         4.102669        -1.002791
 H         1.565944         2.876905        -1.750009
 H         2.409737         1.016337         1.448843
