19
Iteration:  2057
 C         0.019485         0.264547        -0.322919
 C         1.498342         0.113586        -0.084795
 O         2.185023        -1.154311        -0.048728
 C         2.599780        -0.269037        -1.052620
 C         3.436494         0.830694        -0.454181
 C         3.560313         1.986555        -1.429704
 C         2.319177         2.985936        -1.000862
 O         1.884978         2.538759         0.172434
 C         2.337166         1.255475         0.559096
 H        -0.502555         0.416402         0.745775
 H        -0.262381         1.083290        -1.183538
 H        -0.541548        -0.613408        -0.732430
 H         2.405421        -0.802212        -1.967879
 H         4.334914         0.666765         0.071679
 H         4.489393         2.422749        -1.535259
 H         3.438925         1.612148        -2.487603
 H         2.532592         4.080858        -0.859126
 H         1.444699         2.931585        -1.650854
 H         2.530015         1.475847         1.684108
