19
Iteration:  3730charge 0 multiplicity 1
 C        -0.102283         0.166715        -0.100862
 C         1.421151         0.082321        -0.142332
 O         2.218044        -1.123671         0.121988
 C         2.529712        -0.257376        -1.109780
 C         3.450367         0.849987        -0.578885
 C         3.552325         2.128328        -1.469124
 C         2.661329         3.144819        -0.815140
 O         1.706010         2.407835        -0.072971
 C         2.342521         1.186088         0.419348
 H        -0.412772         0.202140         0.986939
 H        -0.284660         1.140551        -0.501289
 H        -0.559947        -0.745910        -0.661862
 H         2.681753        -0.964518        -1.915145
 H         4.487966         0.484275        -0.342601
 H         4.472968         2.555459        -1.889878
 H         2.949540         1.863556        -2.304730
 H         3.245691         3.650968        -0.032852
 H         2.102773         3.889046        -1.426392
 H         2.497530         1.203939         1.486851
