19
Iteration:  3108
 C        -0.131374         0.011476        -0.185204
 C         1.383681         0.076533        -0.116841
 O         2.170874        -1.120980         0.056062
 C         2.519377        -0.234924        -1.058500
 C         3.461781         0.810724        -0.497027
 C         3.707740         2.181872        -1.439490
 C         2.406710         3.023258        -1.083823
 O         1.959099         2.555468         0.159272
 C         2.294869         1.262996         0.464774
 H        -0.523376        -0.451540         0.748618
 H        -0.404869         1.107671        -0.187873
 H        -0.639187        -0.318422        -1.065629
 H         2.342203        -0.520822        -2.089716
 H         4.381541         0.343723        -0.206443
 H         4.613089         2.771791        -1.245227
 H         3.866570         1.994356        -2.615961
 H         2.570290         4.105698        -0.898111
 H         1.591876         2.857249        -1.757970
 H         2.644293         1.016850         1.499354
