19
Iteration:  1891charge 0 multiplicity 1
 C        -0.067909         0.210536        -0.086982
 C         1.429073         0.130381        -0.147226
 O         2.149666        -1.078465         0.006035
 C         2.509580        -0.173459        -1.214732
 C         3.524435         0.789861        -0.543710
 C         3.713010         2.199524        -1.184074
 C         2.352964         2.872900        -1.120022
 O         1.808008         2.493602         0.107718
 C         2.347695         1.185209         0.445408
 H        -0.437663        -0.120688         0.909857
 H        -0.418937         1.252681        -0.239896
 H        -0.506511        -0.436199        -0.984490
 H         2.603232        -0.979427        -1.990538
 H         4.431031         0.321924        -0.152777
 H         4.483266         2.694214        -0.618064
 H         4.262071         1.963647        -2.147727
 H         2.490491         3.921364        -1.295352
 H         1.762140         2.441150        -1.997364
 H         2.529460         1.165825         1.537961
