19
Iteration:  1797
 C        -0.082892         0.038094        -0.349443
 C         1.395689         0.175632        -0.272178
 O         2.119702        -1.025832         0.116499
 C         2.545014        -0.322747        -1.030245
 C         3.524334         0.863595        -0.513120
 C         3.579603         2.035204        -1.406675
 C         2.370198         2.982009        -1.040486
 O         1.981882         2.570065         0.274816
 C         2.354622         1.243760         0.438654
 H        -0.320943        -0.027704         0.772996
 H        -0.566344         1.055921        -0.528240
 H        -0.497494        -0.724110        -0.989043
 H         2.437706        -0.868579        -1.917288
 H         4.502906         0.530074        -0.121080
 H         4.452099         2.706637        -1.212888
 H         3.703745         1.934327        -2.430475
 H         2.621234         4.080306        -0.920766
 H         1.562786         2.852483        -1.716673
 H         2.475648         1.012077         1.518076
