19
Iteration:  4778
 C        -0.135777        -0.138153        -0.234630
 C         1.323266         0.067684        -0.266165
 O         2.260632        -1.131989         0.234197
 C         2.493346        -0.436910        -1.048084
 C         3.382466         0.834729        -0.714060
 C         3.425256         2.151770        -1.571042
 C         2.889237         3.279310        -0.676856
 O         1.857232         2.660453         0.149219
 C         2.232436         1.284788         0.341302
 H        -0.475122        -0.514354         0.723882
 H        -0.682296         0.748755        -0.602491
 H        -0.345803        -0.883148        -0.960016
 H         2.400254        -0.943886        -1.993515
 H         4.392364         0.725128        -0.255808
 H         4.486783         2.402215        -1.904262
 H         2.697445         2.096486        -2.441064
 H         3.583174         3.824766         0.034920
 H         2.477889         3.865353        -1.470259
 H         2.487885         1.150684         1.401436
