19
Iteration:    34charge 0 multiplicity 1
 C        -0.040995         0.175243        -0.095587
 C         1.419142         0.149770        -0.285686
 O         1.944090        -1.117998         0.037079
 C         2.570456        -0.410323        -1.056704
 C         3.518944         0.780634        -0.559568
 C         3.632020         2.117172        -1.371112
 C         2.382340         3.016982        -1.013892
 O         2.045385         2.589556         0.241350
 C         2.326433         1.252319         0.295787
 H        -0.248455        -0.243574         0.881983
 H        -0.258234         1.238769        -0.055440
 H        -0.627733        -0.337319        -0.857261
 H         2.549340        -0.973281        -1.996401
 H         4.420189         0.591465        -0.017766
 H         4.524208         2.653816        -1.026035
 H         3.741479         1.905617        -2.417836
 H         2.599827         4.096008        -0.963471
 H         1.540161         2.865125        -1.681372
 H         2.459075         1.118939         1.346574
