19
Iteration:  3256charge 0 multiplicity 1
 C        -0.054398        -0.093271        -0.247210
 C         1.375098         0.104822        -0.160165
 O         2.145681        -1.044443         0.052944
 C         2.512365        -0.314921        -1.088102
 C         3.403108         0.848849        -0.558410
 C         3.623837         2.018516        -1.481942
 C         2.426760         3.065089        -0.993200
 O         2.030855         2.663878         0.313502
 C         2.269039         1.328985         0.438094
 H        -0.512691        -0.201887         0.734728
 H        -0.485542         0.780209        -0.644247
 H        -0.224448        -1.054807        -0.818056
 H         2.675271        -0.815049        -2.081953
 H         4.411288         0.495997        -0.103864
 H         4.694520         2.454484        -1.489382
 H         3.453592         1.882344        -2.558675
 H         2.861356         4.071392        -1.031231
 H         1.603639         3.134161        -1.683584
 H         2.262752         1.295790         1.541859
