19
Iteration:  3192charge 0 multiplicity 1
 C         0.024817         0.311411        -0.262493
 C         1.521049         0.083065        -0.092407
 O         2.178064        -1.219391         0.013231
 C         2.452362        -0.172288        -1.076585
 C         3.473306         0.827028        -0.524803
 C         3.633141         2.140714        -1.320329
 C         2.240541         2.808562        -1.157224
 O         1.895636         2.534230         0.200601
 C         2.380776         1.284667         0.519260
 H        -0.492439         0.276457         0.737413
 H        -0.218586         1.270922        -0.714367
 H        -0.345856        -0.580232        -0.859487
 H         2.341740        -0.521190        -2.122987
 H         4.535279         0.392951        -0.439522
 H         4.371561         2.744491        -0.762245
 H         3.925292         1.864203        -2.279871
 H         2.243803         3.946079        -1.243888
 H         1.294361         2.471664        -1.697736
 H         2.689007         1.138452         1.569351
