19
Iteration:  2591charge 0 multiplicity 1
 C        -0.033444        -0.119991        -0.218794
 C         1.424356         0.087999        -0.157491
 O         2.225689        -1.045999         0.166360
 C         2.570975        -0.371394        -1.071348
 C         3.382725         0.874533        -0.571846
 C         3.372028         2.042533        -1.567631
 C         2.988567         3.223294        -0.691902
 O         1.706330         2.573130        -0.036462
 C         2.136488         1.283698         0.416163
 H        -0.554836         0.122670         0.752244
 H        -0.540338         0.611157        -0.961258
 H        -0.173473        -1.089552        -0.696821
 H         2.593625        -1.096272        -1.819476
 H         4.413420         0.629855        -0.224465
 H         4.313072         2.315501        -2.179631
 H         2.656058         2.154998        -2.279040
 H         3.691605         3.474513         0.061609
 H         2.722203         4.145046        -1.243200
 H         2.093068         1.493904         1.492552
