19
Iteration:  1878charge 0 multiplicity 1
 C        -0.022848         0.181879        -0.142806
 C         1.482117         0.183973        -0.186343
 O         2.142029        -1.077303         0.058751
 C         2.444461        -0.173312        -1.155805
 C         3.460425         0.789958        -0.579186
 C         3.807027         2.122025        -1.187152
 C         2.359987         2.853129        -1.153565
 O         1.806735         2.499306         0.132508
 C         2.376321         1.217991         0.454107
 H        -0.342399        -0.200468         0.865293
 H        -0.465170         1.146310        -0.436000
 H        -0.461065        -0.728624        -0.842742
 H         2.297320        -0.334876        -2.299708
 H         4.315445         0.210867        -0.096475
 H         4.373540         2.612863        -0.461737
 H         4.050260         2.399252        -2.190514
 H         2.146547         3.908498        -1.136341
 H         1.701081         2.435932        -1.944153
 H         2.549011         1.134145         1.518320
