19
Iteration:  2762charge 0 multiplicity 1
 C        -0.089608        -0.053913        -0.194159
 C         1.346515         0.083992        -0.141607
 O         2.259881        -1.114344         0.134208
 C         2.416683        -0.244825        -0.997529
 C         3.404534         0.851091        -0.561382
 C         3.574448         2.100399        -1.497547
 C         2.716476         3.183744        -0.828829
 O         1.768913         2.559446        -0.010267
 C         2.350062         1.250496         0.374408
 H        -0.504969        -0.609610         0.610932
 H        -0.624978         0.909978        -0.495624
 H        -0.236341        -0.753724        -1.008374
 H         2.274615        -0.610037        -1.983628
 H         4.261153         0.420408         0.055171
 H         4.599868         2.463126        -1.566742
 H         3.235351         1.782117        -2.514619
 H         3.419123         3.732001        -0.253017
 H         2.176313         3.828641        -1.497197
 H         2.538852         1.109876         1.457102
