19
Iteration:  1394charge 0 multiplicity 1
 C        -0.117439         0.147061        -0.150400
 C         1.436044         0.120279        -0.262363
 O         2.201094        -1.074714         0.001982
 C         2.635409        -0.328548        -1.053106
 C         3.417008         0.848750        -0.434671
 C         3.556178         2.018619        -1.322657
 C         2.443090         3.013354        -1.093448
 O         1.949247         2.596113         0.185214
 C         2.269652         1.249112         0.417638
 H        -0.387413        -0.210516         0.840365
 H        -0.262807         1.223972        -0.158470
 H        -0.478163        -0.461867        -0.937862
 H         2.570637        -0.738406        -2.140225
 H         4.362718         0.388511         0.011100
 H         4.592208         2.448587        -1.318034
 H         3.436992         1.653193        -2.378934
 H         2.404974         4.117131        -1.104166
 H         1.656041         2.816147        -1.861938
 H         2.257822         1.044629         1.472022
