19
Iteration:  2874
 C        -0.092872        -0.023148        -0.274459
 C         1.381331         0.030782        -0.113943
 O         2.226091        -1.098573         0.200171
 C         2.468334        -0.278745        -1.009304
 C         3.456190         0.876499        -0.624061
 C         3.409795         2.085445        -1.585836
 C         2.797820         3.246323        -0.753984
 O         1.801387         2.486801         0.038788
 C         2.297897         1.284122         0.391105
 H        -0.627787        -0.068500         0.680525
 H        -0.433835         0.845202        -0.913697
 H        -0.318636        -0.914985        -0.930519
 H         2.391226        -0.864142        -1.962573
 H         4.432425         0.650036        -0.054349
 H         4.428500         2.466477        -1.968405
 H         2.900996         1.628888        -2.545308
 H         3.580496         3.684027        -0.051227
 H         2.306418         4.004465        -1.295562
 H         2.507400         1.144764         1.495014
