19
Iteration:  1604
 C        -0.145997        -0.074980         0.001955
 C         1.346000         0.103198        -0.198127
 O         2.178053        -1.038325        -0.040466
 C         2.525957        -0.196075        -1.091262
 C         3.439476         0.852269        -0.429613
 C         3.783625         2.032902        -1.317432
 C         2.616372         3.146945        -1.073236
 O         1.822673         2.578818         0.020125
 C         2.216631         1.222018         0.380610
 H        -0.323513        -0.499449         1.010657
 H        -0.857965         0.730174         0.149206
 H        -0.646539        -0.821984        -0.693638
 H         2.564686        -0.640592        -2.028847
 H         4.349967         0.496345         0.137047
 H         4.853911         2.446701        -1.186469
 H         3.691881         1.542572        -2.446143
 H         2.899124         4.175392        -0.826472
 H         1.919444         3.197634        -1.892206
 H         2.383380         1.141175         1.446652
