19
Iteration:  1220charge 0 multiplicity 1
 C         0.002855         0.237310        -0.393186
 C         1.490294         0.181587        -0.061019
 O         2.119508        -1.087746         0.088281
 C         2.511526        -0.262550        -1.048218
 C         3.507053         0.740131        -0.580385
 C         3.568215         2.140125        -1.394801
 C         2.224109         2.869200        -1.113885
 O         1.939800         2.497517         0.249447
 C         2.445398         1.224629         0.545349
 H        -0.586962        -0.376845         0.363092
 H        -0.213999         1.356479        -0.358498
 H        -0.129870        -0.120149        -1.475161
 H         2.164709        -0.571223        -2.011963
 H         4.488197         0.392128        -0.163287
 H         4.413551         2.622826        -0.892241
 H         3.693821         2.085808        -2.426379
 H         2.322195         3.963912        -1.056833
 H         1.455780         2.606487        -1.794229
 H         2.685678         1.357371         1.603217
