19
Iteration:   615
 C        -0.022228         0.118725        -0.323905
 C         1.445732         0.151012        -0.017165
 O         2.130726        -1.121754        -0.069380
 C         2.401797        -0.208012        -1.074983
 C         3.422789         0.801725        -0.488406
 C         3.537030         2.016672        -1.407475
 C         2.369106         2.933930        -1.138719
 O         2.105387         2.643109         0.278111
 C         2.390352         1.234984         0.553039
 H        -0.587583        -0.117724         0.625610
 H        -0.332375         1.213921        -0.582639
 H        -0.101200        -0.709735        -1.057828
 H         2.258484        -0.508895        -2.109241
 H         4.204155         0.214763        -0.023344
 H         4.471206         2.494328        -1.084284
 H         3.539919         1.753215        -2.505436
 H         2.507979         4.038901        -1.114228
 H         1.507333         2.860799        -1.742940
 H         2.459944         1.275934         1.659747
