19
Iteration:  2787charge 0 multiplicity 1
 C        -0.042018        -0.125217        -0.126432
 C         1.380351         0.061998        -0.185799
 O         2.169609        -1.050940         0.107045
 C         2.540741        -0.277329        -1.063469
 C         3.383389         0.829813        -0.588571
 C         3.558540         2.002676        -1.588646
 C         2.792549         3.219358        -0.716134
 O         1.782373         2.607995        -0.030157
 C         2.216615         1.306588         0.466186
 H        -0.586614        -0.283508         0.762776
 H        -0.435126         0.586923        -0.809319
 H        -0.167762        -1.083944        -0.607152
 H         2.479197        -0.707480        -2.051590
 H         4.237227         0.405896         0.018569
 H         4.562592         2.522401        -1.854415
 H         2.911065         2.043331        -2.559785
 H         3.538018         3.698323        -0.112606
 H         2.304230         3.897449        -1.325350
 H         2.192085         1.240621         1.568066
