19
Iteration:  1343
 C        -0.110652        -0.018915        -0.180743
 C         1.403137         0.103247         0.005807
 O         2.214705        -1.138909         0.006705
 C         2.345426        -0.197104        -1.057929
 C         3.406666         0.831162        -0.563069
 C         3.697801         2.114868        -1.313722
 C         2.502940         3.021033        -1.119072
 O         1.952470         2.616767         0.046717
 C         2.297892         1.232409         0.477003
 H        -0.625463        -0.243170         0.818214
 H        -0.381772         1.006465        -0.621619
 H        -0.080777        -0.939118        -0.786912
 H         2.258201        -0.568295        -2.112467
 H         4.222991         0.229190        -0.131638
 H         4.439215         2.684790        -0.718093
 H         3.948578         2.153570        -2.354963
 H         2.877859         4.022797        -0.903924
 H         1.752848         3.119545        -1.952783
 H         2.626780         1.291371         1.556477
