19
Iteration:  4387charge 0 multiplicity 1
 C        -0.035715         0.132267        -0.203927
 C         1.445619         0.100330        -0.236187
 O         2.127552        -1.073270         0.007137
 C         2.579277        -0.226735        -1.114299
 C         3.510834         0.899543        -0.485446
 C         3.531774         2.094459        -1.487589
 C         2.489159         3.056781        -0.954790
 O         1.857147         2.481009         0.268297
 C         2.315221         1.151939         0.496107
 H        -0.437515        -0.034852         0.730274
 H        -0.441189         1.100091        -0.608275
 H        -0.358856        -0.648181        -0.909195
 H         2.602454        -0.709802        -2.138400
 H         4.436005         0.368061        -0.237518
 H         4.531639         2.546866        -1.693584
 H         3.092250         1.740225        -2.480644
 H         2.914496         3.956062        -0.526175
 H         1.715262         3.247918        -1.696956
 H         2.389483         0.851410         1.621889
