19
Iteration:  4544charge 0 multiplicity 1
 C         0.034241         0.248336        -0.104740
 C         1.458300         0.112362        -0.093604
 O         2.129281        -1.150744        -0.157432
 C         2.499778        -0.122875        -1.165173
 C         3.487027         0.811281        -0.482981
 C         3.684986         2.137014        -1.286353
 C         2.287778         2.857788        -1.153749
 O         1.858784         2.486622         0.151296
 C         2.377311         1.199753         0.591300
 H        -0.334503        -0.091336         0.921716
 H        -0.145344         1.290456        -0.071977
 H        -0.496343        -0.269261        -0.944702
 H         2.386762        -0.255261        -2.250155
 H         4.355372         0.362411        -0.045062
 H         4.483077         2.805207        -0.734283
 H         3.896012         1.881075        -2.365577
 H         2.220378         4.001052        -1.202279
 H         1.555291         2.383108        -1.944141
 H         2.550334         1.033070         1.701770
