19
Iteration:  1556
 C        -0.097327        -0.056695        -0.163638
 C         1.413513         0.097124        -0.061320
 O         2.230704        -1.135311         0.094013
 C         2.407027        -0.270460        -1.072025
 C         3.349125         0.773506        -0.600243
 C         3.729790         2.130635        -1.370134
 C         2.606720         3.156672        -1.078453
 O         1.832554         2.565944         0.070804
 C         2.303466         1.301246         0.493781
 H        -0.889579        -0.263367         0.512535
 H        -0.376845         0.963758        -0.437367
 H        -0.342720        -0.660608        -0.992515
 H         2.375462        -0.683807        -2.154498
 H         4.160481         0.269574        -0.052964
 H         4.711873         2.541435        -1.054945
 H         3.715361         1.945865        -2.465124
 H         2.845311         4.206834        -0.722617
 H         1.956655         3.317117        -1.989591
 H         2.516939         1.329851         1.576407
