19
Iteration:  4727
 C        -0.005179         0.096573        -0.363463
 C         1.450817         0.102293        -0.126010
 O         2.242866        -1.156106         0.056744
 C         2.559874        -0.251478        -1.020023
 C         3.467743         0.816227        -0.554527
 C         3.295663         1.975723        -1.610325
 C         2.672990         3.172325        -0.788668
 O         1.812285         2.563109         0.155544
 C         2.284715         1.280090         0.560888
 H        -0.465440        -0.136362         0.590019
 H        -0.208503         1.271219        -0.724043
 H        -0.420849        -0.647385        -1.152452
 H         2.470004        -0.888778        -1.979619
 H         4.462650         0.486326        -0.189524
 H         4.072188         2.012752        -2.305571
 H         2.477436         1.534813        -2.207107
 H         3.453690         3.624289        -0.168839
 H         2.149650         4.093209        -1.392662
 H         2.640250         1.279957         1.592565
