19
Iteration:  3843
 C        -0.087707         0.060685        -0.261584
 C         1.431195        -0.001233        -0.189805
 O         2.224624        -1.107401         0.237583
 C         2.593322        -0.328130        -0.981532
 C         3.366116         0.894633        -0.565361
 C         3.306035         2.135573        -1.679467
 C         2.849481         3.217835        -0.726909
 O         1.814558         2.500685         0.041110
 C         2.274304         1.218436         0.387788
 H        -0.571405         0.016336         0.707935
 H        -0.679095         0.899395        -0.772553
 H        -0.492704        -0.891034        -0.824492
 H         2.828899        -1.040419        -1.870297
 H         4.442495         0.872976        -0.380663
 H         4.300511         2.198058        -2.128434
 H         2.501387         2.035979        -2.470161
 H         3.765485         3.395938        -0.123646
 H         2.324996         4.120688        -1.198095
 H         2.391040         1.167825         1.436391
