19
Iteration:  2279charge 0 multiplicity 1
 C        -0.073141         0.010991        -0.332354
 C         1.400213         0.160250        -0.182871
 O         2.134698        -1.054226        -0.071185
 C         2.479994        -0.166830        -1.055678
 C         3.451668         0.853601        -0.430180
 C         3.645746         2.070188        -1.431546
 C         2.340463         2.850002        -1.108421
 O         2.079750         2.690105         0.299070
 C         2.310590         1.238156         0.598198
 H        -0.397465        -0.149750         0.719598
 H        -0.400267         1.011289        -0.628438
 H        -0.282420        -0.932752        -0.983166
 H         2.573589        -0.690741        -1.949438
 H         4.395672         0.387419         0.016006
 H         4.534083         2.567372        -1.249667
 H         3.547927         1.537379        -2.317736
 H         2.359713         3.974780        -1.215730
 H         1.441407         2.488798        -1.697951
 H         2.369012         0.893201         1.606961
