19
Iteration:    45charge 0 multiplicity 1
 C        -0.073742         0.227460        -0.167985
 C         1.381232         0.088810        -0.226549
 O         2.096862        -1.070712         0.091377
 C         2.519226        -0.274323        -1.163794
 C         3.406995         0.834419        -0.502137
 C         3.610720         2.104820        -1.434991
 C         2.456455         2.988524        -1.071245
 O         2.084240         2.536095         0.236856
 C         2.270647         1.139392         0.448375
 H        -0.287827        -0.203962         0.809160
 H        -0.418550         1.254144        -0.120593
 H        -0.719617        -0.287861        -0.878305
 H         2.655877        -0.902964        -2.065260
 H         4.307099         0.507356        -0.018200
 H         4.565349         2.564507        -1.142049
 H         3.676511         1.908505        -2.489703
 H         2.676064         4.066924        -0.997140
 H         1.651796         2.866605        -1.792785
 H         2.373175         0.914960         1.493422
