19
Iteration:  1537charge 0 multiplicity 1
 C        -0.118590         0.077715        -0.267023
 C         1.419761         0.060425        -0.032384
 O         2.205571        -1.110746         0.067980
 C         2.457033        -0.213339        -1.005240
 C         3.456261         0.908794        -0.556140
 C         3.650254         2.050999        -1.414002
 C         2.507046         3.040200        -1.047442
 O         1.841961         2.531851         0.114030
 C         2.306320         1.222003         0.462403
 H        -0.440668        -0.054682         0.776949
 H        -0.493745         1.018572        -0.701820
 H        -0.373595        -0.755930        -0.923723
 H         2.280144        -0.658076        -2.014880
 H         4.440849         0.454876        -0.184666
 H         4.653972         2.544189        -1.116774
 H         3.881598         1.868073        -2.600351
 H         2.958462         4.016041        -0.798067
 H         1.909175         3.218228        -1.910048
 H         2.514201         1.290591         1.512718
