19
Iteration:   865charge 0 multiplicity 1
 C        -0.074729         0.159569        -0.168589
 C         1.433571         0.252835        -0.249380
 O         2.116196        -1.012171         0.031677
 C         2.552709        -0.251314        -1.127205
 C         3.498366         0.843612        -0.516880
 C         3.646021         2.049306        -1.345984
 C         2.355408         2.854094        -1.080806
 O         1.946688         2.515416         0.262724
 C         2.358378         1.211610         0.430482
 H        -0.445167         0.298073         0.808164
 H        -0.444402         1.022620        -0.760762
 H        -0.569098        -0.688955        -0.620486
 H         2.554304        -0.929417        -1.906853
 H         4.322210         0.344574        -0.014191
 H         4.565335         2.498634        -1.131049
 H         3.686897         1.870581        -2.402036
 H         2.333292         3.964129        -1.150686
 H         1.478191         2.660912        -1.717518
 H         2.513206         0.919657         1.516460
