19
Iteration:  1271
 C        -0.031878         0.208650        -0.096547
 C         1.447387         0.173039        -0.208195
 O         2.089950        -1.149036        -0.118727
 C         2.592074        -0.236299        -1.119785
 C         3.505924         0.849646        -0.440597
 C         3.660284         2.095781        -1.291282
 C         2.271760         2.768614        -1.158021
 O         1.914754         2.659265         0.221937
 C         2.322181         1.206452         0.489951
 H        -0.219011         0.035754         0.925006
 H        -0.318256         1.172632        -0.381203
 H        -0.367669        -0.628872        -0.689676
 H         2.795967        -0.618521        -2.075167
 H         4.435730         0.529016         0.002202
 H         4.419170         2.731269        -0.851457
 H         3.905710         1.744908        -2.329825
 H         2.421237         3.864525        -1.411921
 H         1.476450         2.319663        -1.849361
 H         2.392657         1.341005         1.530279
