19
Iteration:  2781
 C        -0.029105        -0.142618        -0.171277
 C         1.428669         0.105058        -0.111199
 O         2.162660        -1.038761         0.100719
 C         2.530232        -0.292982        -1.102871
 C         3.371982         0.842500        -0.613845
 C         3.564901         1.989634        -1.548482
 C         2.813485         3.208864        -0.775245
 O         1.746916         2.570625         0.013996
 C         2.199865         1.316649         0.488485
 H        -0.547154        -0.276035         0.863094
 H        -0.558990         0.738639        -0.720110
 H        -0.286273        -1.043551        -0.839529
 H         2.486453        -0.894020        -2.071682
 H         4.296716         0.451829        -0.216310
 H         4.530290         2.371456        -1.722418
 H         3.087412         2.097144        -2.458006
 H         3.515956         3.827298        -0.076036
 H         2.245443         3.933134        -1.544705
 H         2.344003         1.404134         1.590620
