19
Iteration:  4559
 C        -0.074496         0.177461        -0.052755
 C         1.454800         0.121177        -0.129542
 O         2.182220        -1.164479        -0.140056
 C         2.434183        -0.209061        -1.150008
 C         3.502045         0.853670        -0.555188
 C         3.685112         2.212711        -1.208501
 C         2.349775         2.813986        -1.152893
 O         1.957276         2.554352         0.213439
 C         2.311085         1.213617         0.476423
 H        -0.554654        -0.345204         0.857991
 H        -0.449592         1.217962        -0.167552
 H        -0.597363        -0.329402        -0.901912
 H         2.232635        -0.660247        -2.152163
 H         4.486753         0.361758        -0.301303
 H         4.463550         2.741372        -0.665703
 H         4.172614         2.241072        -2.189698
 H         2.338916         3.895543        -1.339441
 H         1.576140         2.466612        -1.926765
 H         2.387305         1.410101         1.509112
