19
Iteration:  2076
 C        -0.056435         0.220507        -0.280007
 C         1.402414         0.088237        -0.157166
 O         2.220024        -1.189447         0.070464
 C         2.535958        -0.252136        -1.054890
 C         3.477943         0.853460        -0.506802
 C         3.572918         2.117854        -1.441581
 C         2.411669         2.957816        -1.105745
 O         1.862647         2.600265         0.290371
 C         2.337703         1.160762         0.477754
 H        -0.550804         0.398333         0.684097
 H        -0.198815         1.170135        -0.792424
 H        -0.435470        -0.647072        -0.902336
 H         2.521768        -0.679671        -2.043255
 H         4.492823         0.539681        -0.206809
 H         4.515554         2.558400        -1.141714
 H         3.701680         1.810348        -2.483768
 H         2.671110         3.988312        -1.091836
 H         1.601675         2.793468        -1.913008
 H         2.404445         1.176795         1.577627
