19
Iteration:  1920charge 0 multiplicity 1
 C        -0.111389         0.194114        -0.105637
 C         1.457192         0.126895        -0.183716
 O         2.201130        -1.258239        -0.082630
 C         2.520235        -0.141037        -1.081816
 C         3.453043         0.819248        -0.400582
 C         3.711427         2.128113        -1.340962
 C         2.371253         2.922694        -1.108142
 O         1.888113         2.601719         0.124344
 C         2.270397         1.225008         0.483901
 H        -0.357998        -0.403966         0.769250
 H        -0.323277         1.241188        -0.194379
 H        -0.561134        -0.375887        -0.979420
 H         2.560619        -0.619059        -2.102180
 H         4.427008         0.526337         0.130428
 H         4.609258         2.668009        -0.910180
 H         3.976148         1.765047        -2.299958
 H         2.422045         4.010551        -1.301367
 H         1.666192         2.529889        -1.861441
 H         2.320086         1.303862         1.551369
