19
Iteration:  1936charge 0 multiplicity 1
 C        -0.029273         0.071876        -0.195009
 C         1.417395         0.119163        -0.105236
 O         2.141075        -1.075978        -0.116543
 C         2.555000        -0.238759        -1.107977
 C         3.501209         0.851998        -0.435921
 C         3.634054         2.037490        -1.296614
 C         2.378012         2.876120        -1.180409
 O         1.884809         2.632176         0.218469
 C         2.304020         1.306931         0.566092
 H        -0.531877        -0.327349         0.713336
 H        -0.487814         1.110152        -0.193510
 H        -0.417700        -0.420766        -1.099652
 H         2.555908        -0.468525        -2.150733
 H         4.330173         0.339569        -0.048103
 H         4.582177         2.547428        -1.138400
 H         3.747583         1.768467        -2.417421
 H         2.718234         3.912617        -1.251971
 H         1.702755         2.621953        -2.014926
 H         2.493544         1.167452         1.663659
