19
Iteration:  2133
 C        -0.085208        -0.063960        -0.203250
 C         1.399374         0.145613        -0.132458
 O         2.131917        -1.057841        -0.039776
 C         2.465676        -0.118740        -1.128207
 C         3.485949         0.770228        -0.488200
 C         3.714368         2.157829        -1.333390
 C         2.351922         2.820341        -1.175740
 O         2.094426         2.629386         0.227574
 C         2.233251         1.311978         0.579864
 H        -0.444599        -0.700482         0.689311
 H        -0.567078         0.998961        -0.308748
 H        -0.509210        -0.580927        -1.050118
 H         2.434024        -0.462795        -2.171852
 H         4.389720         0.308464        -0.178581
 H         4.535658         2.705680        -1.016398
 H         3.884799         1.842966        -2.392311
 H         2.366173         3.933688        -1.172828
 H         1.518890         2.452070        -1.872519
 H         2.227270         1.527998         1.678308
