19
Iteration:  2515
 C        -0.089450         0.038808        -0.200751
 C         1.399463         0.096420        -0.095945
 O         2.173556        -1.092142         0.073826
 C         2.583385        -0.334460        -1.030601
 C         3.462267         0.863858        -0.558690
 C         3.588173         2.068738        -1.495716
 C         2.655181         3.131392        -0.957796
 O         1.748571         2.562555         0.066015
 C         2.258946         1.198711         0.490434
 H        -0.696331        -0.487885         0.658837
 H        -0.522872         1.117779        -0.343379
 H        -0.269640        -0.507267        -1.139235
 H         2.735039        -0.819003        -1.954892
 H         4.420707         0.674321        -0.033949
 H         4.668152         2.490329        -1.633674
 H         3.180681         1.809364        -2.456971
 H         3.412398         3.868014        -0.591163
 H         1.862911         3.693566        -1.555818
 H         2.386471         1.312965         1.630693
