19
Iteration:  3825charge 0 multiplicity 1
 C        -0.073138        -0.110617        -0.324461
 C         1.379835         0.086149        -0.117066
 O         2.235008        -1.041147         0.221880
 C         2.504417        -0.434320        -1.022365
 C         3.418226         0.840147        -0.707144
 C         3.374931         2.041255        -1.573884
 C         2.799395         3.255161        -0.757173
 O         1.853994         2.644003         0.129125
 C         2.250456         1.285445         0.381405
 H        -0.530302        -0.360543         0.691754
 H        -0.335417         0.906806        -0.635650
 H        -0.283380        -0.896009        -0.939149
 H         2.446387        -0.827092        -2.008742
 H         4.306990         0.550321        -0.140252
 H         4.336347         2.203845        -2.183901
 H         2.559210         1.812188        -2.319458
 H         3.559432         3.736576        -0.058533
 H         2.350168         3.929374        -1.432340
 H         2.548259         1.188927         1.491526
