19
Iteration:  3577charge 0 multiplicity 1
 C        -0.015128         0.100443        -0.296007
 C         1.506942         0.145050        -0.097008
 O         2.238279        -1.081414         0.185291
 C         2.527736        -0.418270        -1.004761
 C         3.412770         0.862469        -0.625674
 C         3.363665         2.058080        -1.605750
 C         2.711983         3.132071        -0.707531
 O         1.704688         2.491973         0.012467
 C         2.325060         1.271883         0.428972
 H        -0.415103        -0.069274         0.642648
 H        -0.345826         0.998031        -0.813044
 H        -0.146424        -0.707592        -0.979051
 H         2.171540        -0.824277        -2.004135
 H         4.393299         0.495185        -0.270887
 H         4.394058         2.379466        -2.073693
 H         2.652143         1.706139        -2.405685
 H         3.559275         3.438185        -0.022211
 H         2.385794         4.069364        -1.157812
 H         2.495133         1.565322         1.444361
