19
Iteration:  4459charge 0 multiplicity 1
 C        -0.130053         0.008593        -0.398130
 C         1.395577         0.177910        -0.198583
 O         2.145926        -1.004803         0.158719
 C         2.430591        -0.239854        -1.129055
 C         3.473279         0.866037        -0.673337
 C         3.586444         2.197609        -1.405021
 C         2.339417         2.977662        -1.039611
 O         2.108564         2.514646         0.425411
 C         2.397288         1.158609         0.458144
 H        -0.649617        -0.078231         0.658903
 H        -0.594983         0.819955        -0.844465
 H        -0.287906        -0.874689        -1.099931
 H         2.590053        -0.921402        -1.942428
 H         4.467710         0.583462        -0.291324
 H         4.515702         2.671203        -1.116770
 H         3.683110         1.928814        -2.438228
 H         2.464047         4.053691        -0.957433
 H         1.456650         2.564350        -1.456365
 H         2.611457         0.788919         1.409436
