19
Iteration:   509charge 0 multiplicity 1
 C        -0.063893         0.192740        -0.196810
 C         1.478117         0.146667        -0.032937
 O         2.126186        -1.096952        -0.081653
 C         2.332693        -0.042627        -1.128441
 C         3.545518         0.810643        -0.496225
 C         3.668629         2.015838        -1.388667
 C         2.367768         2.841176        -1.168966
 O         1.966343         2.528520         0.252507
 C         2.406083         1.198173         0.592285
 H        -0.678255         0.059776         0.711788
 H        -0.484839         1.033242        -0.776778
 H        -0.594187        -0.580208        -0.805573
 H         2.049811        -0.159424        -2.162393
 H         4.356008         0.047801        -0.369940
 H         4.516402         2.569525        -0.946247
 H         4.021928         2.029997        -2.478781
 H         2.541118         3.924980        -1.164310
 H         1.625831         2.399359        -1.932228
 H         2.585150         1.262310         1.663443
