19
Iteration:  3294
 C        -0.153570        -0.175628        -0.302250
 C         1.355353         0.120240        -0.068172
 O         2.142966        -1.039560         0.091629
 C         2.497348        -0.199048        -1.076173
 C         3.419836         0.869707        -0.617169
 C         3.634691         2.088349        -1.491946
 C         2.454954         3.015345        -1.054861
 O         2.077475         2.633701         0.277269
 C         2.356699         1.315895         0.528236
 H        -0.781049        -0.513272         0.568318
 H        -0.570474         0.812611        -0.766700
 H        -0.367752        -0.811831        -1.159123
 H         2.559188        -0.752571        -2.009342
 H         4.223281         0.423642        -0.072486
 H         4.537727         2.562016        -1.296972
 H         3.556414         1.780989        -2.545138
 H         2.729279         4.058888        -0.811347
 H         1.579950         2.907983        -1.791671
 H         2.463033         1.060627         1.608640
