19
Iteration:   176
 C        -0.086143         0.211138        -0.199034
 C         1.435046         0.143355         0.022687
 O         2.003170        -1.190241        -0.124582
 C         2.440065        -0.328295        -1.051229
 C         3.443956         0.836584        -0.533023
 C         3.688010         2.114652        -1.412814
 C         2.454358         2.943893        -1.149986
 O         1.873105         2.569031         0.228868
 C         2.526426         1.291036         0.584949
 H        -0.471108        -0.250055         0.715937
 H        -0.441359         1.202905        -0.503000
 H        -0.069535        -0.562238        -0.966302
 H         2.328851        -0.525227        -2.251425
 H         4.287954         0.452434        -0.091131
 H         4.642823         2.628824        -1.042491
 H         3.844909         2.010347        -2.451181
 H         2.552658         4.086245        -1.224219
 H         1.679697         2.681545        -1.924169
 H         3.029113         1.107517         1.564691
