19
Iteration:  2395
 C        -0.133733         0.058893        -0.199867
 C         1.436752         0.233747        -0.145099
 O         2.095317        -1.072655        -0.090446
 C         2.573654        -0.141010        -1.067296
 C         3.502602         0.846861        -0.442783
 C         3.685725         2.101828        -1.347466
 C         2.313603         2.815297        -1.222519
 O         2.033876         2.571762         0.285393
 C         2.319207         1.240500         0.506307
 H        -0.609372        -0.201022         0.751307
 H        -0.620321         0.983766        -0.580935
 H        -0.377623        -0.728358        -0.818070
 H         2.639731        -0.610021        -2.042240
 H         4.334226         0.273234        -0.012951
 H         4.420435         2.715744        -0.772958
 H         3.807066         1.859504        -2.390306
 H         2.177943         3.907093        -1.344582
 H         1.684024         2.270556        -1.897828
 H         2.343043         1.122205         1.644323
