19
Iteration:  3215
 C        -0.033507         0.207682        -0.226744
 C         1.490159         0.089373        -0.132643
 O         2.186935        -1.069182         0.021968
 C         2.546483        -0.303363        -1.074365
 C         3.488495         0.809940        -0.558640
 C         3.599514         2.115779        -1.431463
 C         2.351739         2.960551        -1.049851
 O         1.873306         2.561968         0.220898
 C         2.291246         1.198680         0.482553
 H        -0.465385         0.313472         0.828460
 H        -0.269448         1.184096        -0.738664
 H        -0.430002        -0.707042        -0.678602
 H         2.417556        -0.923260        -1.952653
 H         4.443587         0.388380        -0.087713
 H         4.436512         2.672400        -1.030428
 H         3.773917         1.806713        -2.417919
 H         2.359121         4.092629        -0.949394
 H         1.535358         2.758979        -1.856033
 H         2.659646         1.029855         1.521148
