19
Iteration:  3924charge 0 multiplicity 1
 C        -0.060766        -0.078786        -0.167316
 C         1.394965         0.136840        -0.163711
 O         2.178644        -1.122525         0.079521
 C         2.448342        -0.291028        -1.070756
 C         3.390609         0.825460        -0.582995
 C         3.572232         2.024284        -1.516543
 C         2.644376         3.228341        -0.912972
 O         1.799681         2.587219         0.130450
 C         2.347314         1.280526         0.494493
 H        -0.486310        -0.381778         0.842569
 H        -0.539815         0.731964        -0.653704
 H        -0.178387        -0.907948        -0.774467
 H         2.345157        -0.699998        -2.048635
 H         4.398217         0.524103        -0.307432
 H         4.696646         2.315138        -1.487030
 H         3.399240         1.895137        -2.626613
 H         3.376931         4.045896        -0.583167
 H         2.014176         3.721388        -1.605723
 H         2.700197         1.258196         1.554315
