19
Iteration:  3934charge 0 multiplicity 1
 C        -0.023519        -0.142652        -0.167773
 C         1.398318         0.152652        -0.156444
 O         2.169662        -1.062592         0.056810
 C         2.422713        -0.297686        -1.085289
 C         3.383329         0.837082        -0.586518
 C         3.571414         2.058189        -1.424327
 C         2.664474         3.145533        -0.912631
 O         1.885825         2.591344         0.106421
 C         2.308772         1.322333         0.409021
 H        -0.245472        -0.347505         0.956571
 H        -0.603392         0.794236        -0.323381
 H        -0.312574        -0.871562        -0.822256
 H         2.289851        -0.622882        -2.063319
 H         4.282183         0.401878        -0.135405
 H         4.717201         2.267888        -1.462154
 H         3.121653         1.807622        -2.443323
 H         2.987331         4.119245        -0.417296
 H         1.975093         3.293861        -1.682035
 H         2.427286         1.240568         1.494215
