19
Iteration:  3738charge 0 multiplicity 1
 C        -0.028354         0.145679        -0.096704
 C         1.405683         0.065254        -0.186315
 O         2.208014        -1.130511         0.148730
 C         2.518495        -0.266425        -1.109245
 C         3.456494         0.871505        -0.581461
 C         3.551975         2.070256        -1.537215
 C         2.695303         3.175846        -0.801455
 O         1.687312         2.428679        -0.003223
 C         2.291480         1.181629         0.395062
 H        -0.364612         0.027666         1.023863
 H        -0.409581         1.094824        -0.553564
 H        -0.606377        -0.591151        -0.613338
 H         2.665982        -0.662012        -2.146743
 H         4.413516         0.726186        -0.002850
 H         4.597548         2.428814        -1.793277
 H         2.987120         1.898104        -2.436574
 H         3.277342         3.873178        -0.174403
 H         2.179131         3.782764        -1.533742
 H         2.468345         1.159709         1.534596
