19
Iteration:  1254
 C        -0.044751         0.279256        -0.243889
 C         1.476657         0.129932        -0.137378
 O         2.210645        -1.169393        -0.065086
 C         2.534853        -0.202327        -1.060143
 C         3.521417         0.812691        -0.467283
 C         3.668153         2.108879        -1.387987
 C         2.274494         2.792007        -1.161518
 O         1.905762         2.542428         0.232142
 C         2.290083         1.285349         0.602588
 H        -0.590912         0.059756         0.771137
 H        -0.218353         1.447503        -0.293299
 H        -0.575526        -0.321978        -1.049491
 H         2.174825        -0.446307        -2.117900
 H         4.477758         0.394326        -0.029992
 H         4.597864         2.692148        -1.159342
 H         3.772467         1.987577        -2.452662
 H         2.093920         3.847767        -1.323660
 H         1.620020         2.272682        -1.835589
 H         2.374819         1.068501         1.717231
