19
Iteration:  1341
 C        -0.098843        -0.016139        -0.177436
 C         1.407864         0.086965         0.004012
 O         2.224060        -1.135044         0.000257
 C         2.344583        -0.187644        -1.046666
 C         3.386996         0.831196        -0.573009
 C         3.710006         2.113113        -1.307833
 C         2.490172         3.024347        -1.135512
 O         1.959779         2.621863         0.051062
 C         2.298522         1.247595         0.488446
 H        -0.646171        -0.240945         0.806779
 H        -0.390159         0.983752        -0.665484
 H        -0.131760        -0.935690        -0.791097
 H         2.198594        -0.586968        -2.125233
 H         4.230631         0.177064        -0.181768
 H         4.389384         2.680601        -0.652678
 H         3.988022         2.039094        -2.307447
 H         2.927926         4.000134        -0.847803
 H         1.688704         3.124950        -2.008765
 H         2.565370         1.221185         1.554759
