19
Iteration:  4496charge 0 multiplicity 1
 C         0.035109         0.229334        -0.238273
 C         1.436653         0.099586        -0.172433
 O         2.128336        -1.161366        -0.071471
 C         2.521874        -0.180708        -1.136897
 C         3.479963         0.896999        -0.474455
 C         3.545749         2.082064        -1.369256
 C         2.258154         2.860921        -1.131354
 O         2.016170         2.563797         0.353832
 C         2.343812         1.195973         0.541305
 H        -0.444327        -0.023399         0.665280
 H        -0.257722         1.296315        -0.606534
 H        -0.338586        -0.516047        -0.936853
 H         2.545956        -0.679985        -2.131264
 H         4.499166         0.589685        -0.104031
 H         4.359386         2.732994        -1.038507
 H         3.732039         1.858535        -2.449388
 H         2.277986         3.968090        -1.191570
 H         1.408622         2.658509        -1.903219
 H         2.685097         0.908270         1.590705
