19
Iteration:  2164charge 0 multiplicity 1
 C        -0.102458         0.074669        -0.139390
 C         1.484921         0.143971        -0.116878
 O         2.146958        -1.124690        -0.137174
 C         2.529897        -0.168123        -1.129594
 C         3.498327         0.762877        -0.462797
 C         3.745483         2.078587        -1.339533
 C         2.407450         2.878338        -1.153270
 O         1.807472         2.625025         0.191115
 C         2.341110         1.315200         0.610538
 H        -0.565761        -0.313764         0.761588
 H        -0.596501         1.023719        -0.145521
 H        -0.479113        -0.531767        -0.940151
 H         2.355018        -0.492893        -2.145518
 H         4.437274         0.395015        -0.110283
 H         4.614081         2.709358        -1.096273
 H         3.698812         1.666310        -2.373897
 H         2.545861         3.947822        -1.169162
 H         1.659844         2.652756        -1.973571
 H         2.438020         1.357887         1.728953
