19
Iteration:  3383
 C        -0.048492         0.300125        -0.175774
 C         1.512215         0.187753        -0.001806
 O         2.148581        -1.131029        -0.162440
 C         2.524064        -0.042022        -1.089572
 C         3.551572         0.780869        -0.489750
 C         3.630297         2.102616        -1.262729
 C         2.207200         2.665147        -1.228641
 O         1.849637         2.510348         0.196720
 C         2.451691         1.229673         0.567484
 H        -0.633785         0.202891         0.745925
 H        -0.155714         1.317941        -0.621347
 H        -0.421101        -0.460508        -0.990948
 H         2.303531        -0.398690        -2.125759
 H         4.450638         0.503433        -0.039650
 H         4.320393         2.711098        -0.820621
 H         3.930362         1.745772        -2.242080
 H         2.306622         3.727322        -1.381417
 H         1.463156         2.133079        -1.891183
 H         2.756167         1.200933         1.617916
