19
Iteration:  3161
 C        -0.081235         0.237708        -0.191543
 C         1.451550         0.198633        -0.138023
 O         2.101854        -1.101258        -0.050862
 C         2.561313        -0.070077        -1.123279
 C         3.541470         0.877083        -0.458372
 C         3.641036         2.136174        -1.345706
 C         2.259744         2.641122        -1.191282
 O         1.954827         2.506159         0.250198
 C         2.381726         1.237358         0.570719
 H        -0.505631        -0.174355         0.793412
 H        -0.515417         1.259297        -0.418897
 H        -0.352217        -0.528230        -0.960627
 H         2.506117        -0.498775        -2.120914
 H         4.524899         0.385066        -0.353709
 H         4.346796         2.907428        -1.057991
 H         4.017285         1.760895        -2.302610
 H         2.031076         3.714326        -1.431940
 H         1.521621         2.026334        -1.794769
 H         2.686933         1.022002         1.622762
