19
Iteration:  4196charge 0 multiplicity 1
 C        -0.038965         0.145653        -0.227741
 C         1.457622         0.099424        -0.199721
 O         2.206621        -1.160437         0.005113
 C         2.589023        -0.315688        -1.119035
 C         3.418854         0.863349        -0.522850
 C         3.517168         2.116736        -1.421819
 C         2.438109         3.090041        -0.974719
 O         1.916270         2.548577         0.233276
 C         2.261868         1.169659         0.506777
 H        -0.541658        -0.045136         0.784316
 H        -0.370916         1.139573        -0.388003
 H        -0.478824        -0.345848        -1.058758
 H         2.524259        -0.859917        -2.140410
 H         4.432910         0.577134        -0.175020
 H         4.585747         2.402898        -1.353884
 H         3.414321         1.769465        -2.430692
 H         3.004780         4.059000        -0.825019
 H         1.714476         3.503800        -1.645539
 H         2.259104         0.997567         1.560446
