19
Iteration:  4084charge 0 multiplicity 1
 C        -0.040939         0.216678        -0.306336
 C         1.455797         0.154674        -0.208204
 O         2.100621        -1.114360         0.051232
 C         2.614101        -0.209167        -1.090253
 C         3.493972         0.877550        -0.556795
 C         3.565930         2.140412        -1.480798
 C         2.314885         2.834616        -1.028076
 O         1.937939         2.495050         0.353310
 C         2.376150         1.181428         0.517669
 H        -0.399491         0.453002         0.679821
 H        -0.371405         1.115979        -0.956101
 H        -0.485854        -0.705303        -0.592278
 H         2.658190        -0.721886        -1.989734
 H         4.499059         0.580721        -0.209975
 H         4.440051         2.713961        -1.247651
 H         3.629586         1.953308        -2.535211
 H         2.404638         3.937946        -1.118322
 H         1.359976         2.668032        -1.603182
 H         2.524906         0.999083         1.570618
