19
Iteration:  1025
 C        -0.071993         0.097088        -0.237655
 C         1.464944         0.220258         0.000684
 O         2.213287        -1.084302        -0.062664
 C         2.386858        -0.182164        -1.133433
 C         3.416845         0.812587        -0.479803
 C         3.652491         2.063317        -1.304232
 C         2.377554         2.811882        -1.179203
 O         1.982707         2.595449         0.208382
 C         2.327308         1.259127         0.548879
 H        -0.534691        -0.536461         0.504943
 H        -0.469539         1.077511        -0.179846
 H        -0.127067        -0.151334        -1.256576
 H         2.184118        -0.355893        -2.157556
 H         4.314584         0.300724        -0.127646
 H         4.541255         2.733697        -0.989902
 H         3.902408         1.770392        -2.328886
 H         2.335802         3.875243        -1.294310
 H         1.720346         2.416254        -2.049854
 H         2.585129         1.153454         1.600565
