19
Iteration:  3244
 C        -0.148678        -0.008653        -0.229387
 C         1.404201         0.118592        -0.223141
 O         2.166575        -1.053507         0.083771
 C         2.582672        -0.269224        -1.069859
 C         3.445296         0.855628        -0.531045
 C         3.547803         2.121621        -1.500943
 C         2.507277         3.044126        -1.060166
 O         1.983541         2.636143         0.275797
 C         2.276930         1.190768         0.493632
 H        -0.417339        -0.084631         0.798571
 H        -0.653565         0.770082        -0.705917
 H        -0.502547        -0.966369        -0.739496
 H         2.476606        -0.906681        -1.990124
 H         4.461511         0.563952        -0.130626
 H         4.574206         2.575221        -1.243008
 H         3.479298         1.682321        -2.528282
 H         2.721080         4.079268        -0.882214
 H         1.679120         2.907005        -1.713499
 H         2.629444         0.877060         1.466532
