19
Iteration:  1331charge 0 multiplicity 1
 C        -0.038188        -0.034955        -0.161296
 C         1.383989         0.057738        -0.013059
 O         2.252823        -1.115029         0.000280
 C         2.355920        -0.173336        -1.105526
 C         3.324836         0.813993        -0.587642
 C         3.746907         2.091340        -1.289299
 C         2.494488         3.042619        -1.210057
 O         1.926466         2.603091         0.155500
 C         2.318353         1.306193         0.512989
 H        -0.705905        -0.046500         0.788236
 H        -0.522403         0.825505        -0.777658
 H        -0.494616        -0.796763        -0.820107
 H         1.982715        -0.571965        -2.120934
 H         4.328194         0.355483        -0.343134
 H         4.586557         2.471652        -0.658029
 H         4.297309         1.776084        -2.111304
 H         2.766209         4.112232        -1.151564
 H         1.685977         2.977715        -2.039217
 H         2.408603         1.290451         1.618655
