19
Iteration:  4995
 C        -0.023738         0.208694        -0.278949
 C         1.441002         0.172811        -0.165700
 O         2.066249        -1.105452        -0.006500
 C         2.512858        -0.305925        -1.110593
 C         3.496593         0.872794        -0.653847
 C         3.545853         2.204668        -1.368464
 C         2.254965         2.800816        -1.063864
 O         2.099805         2.549168         0.326350
 C         2.389121         1.168975         0.515870
 H        -0.278174         0.170096         0.881294
 H        -0.454559         1.168787        -0.646726
 H        -0.441575        -0.646556        -0.759867
 H         2.610438        -0.686099        -2.175744
 H         4.403178         0.560515        -0.112996
 H         4.192085         2.811987        -0.683242
 H         3.959930         2.336882        -2.341830
 H         2.235281         3.883901        -1.176726
 H         1.320881         2.420172        -1.566653
 H         2.633590         0.848828         1.600168
