19
Iteration:   429charge 0 multiplicity 1
 C        -0.036735         0.163320        -0.168059
 C         1.390648         0.185159        -0.176226
 O         2.079469        -1.084440         0.022615
 C         2.488583        -0.270954        -1.138604
 C         3.495170         0.829114        -0.551324
 C         3.660151         2.050415        -1.436510
 C         2.455895         2.964124        -1.017996
 O         1.927936         2.558168         0.269756
 C         2.317854         1.186999         0.460611
 H        -0.351018        -0.138833         0.848172
 H        -0.515606         1.180560        -0.206035
 H        -0.506226        -0.541984        -0.876675
 H         2.448361        -0.660583        -2.162357
 H         4.392534         0.397479        -0.306789
 H         4.622014         2.555304        -1.193601
 H         3.674929         1.790316        -2.477777
 H         2.798812         4.002005        -1.025060
 H         1.702546         2.944983        -1.820387
 H         2.587104         1.037542         1.513257
