19
Iteration:  1016charge 0 multiplicity 1
 C        -0.089912         0.121025        -0.249832
 C         1.389813         0.200490        -0.048773
 O         2.231233        -1.001327         0.013259
 C         2.408190        -0.147229        -1.103491
 C         3.488795         0.735733        -0.594286
 C         3.683407         2.057036        -1.356824
 C         2.351133         2.842956        -1.149471
 O         1.955500         2.555170         0.177979
 C         2.374156         1.227299         0.592822
 H        -0.698843        -0.617261         0.357641
 H        -0.692786         1.060011        -0.112958
 H        -0.238774        -0.213154        -1.272291
 H         2.423825        -0.472845        -2.092842
 H         4.347042         0.242949        -0.165165
 H         4.507873         2.525738        -0.698931
 H         3.975383         2.043031        -2.437500
 H         2.335017         3.886380        -1.084835
 H         1.540078         2.490346        -1.721474
 H         2.485937         1.194369         1.717345
