19
Iteration:  2114
 C        -0.106128        -0.005150        -0.222506
 C         1.405967         0.220663        -0.209371
 O         2.128914        -1.046298         0.040230
 C         2.463432        -0.247167        -1.073891
 C         3.472212         0.838905        -0.597631
 C         3.710861         2.115393        -1.324961
 C         2.388538         2.851624        -1.112038
 O         1.974476         2.694006         0.291442
 C         2.371861         1.222324         0.460210
 H        -0.499397        -0.614612         0.672513
 H        -0.798136         0.949693        -0.424773
 H        -0.358356        -0.676194        -1.051391
 H         2.350940        -0.849090        -2.026029
 H         4.422043         0.499224        -0.141189
 H         4.413156         2.700017        -0.697191
 H         3.990118         2.053414        -2.392319
 H         2.339025         3.928339        -1.489109
 H         1.641849         2.292298        -1.650135
 H         2.601033         0.851717         1.489160
