19
Iteration:  4148charge 0 multiplicity 1
 C        -0.073225        -0.163999        -0.407566
 C         1.329625         0.102825        -0.172142
 O         2.116532        -1.010108         0.084588
 C         2.470185        -0.326372        -1.081603
 C         3.467871         0.871703        -0.487051
 C         3.474388         2.121694        -1.535991
 C         2.476370         3.173896        -0.943232
 O         2.174613         2.585959         0.341632
 C         2.320011         1.233891         0.513970
 H        -0.566493        -0.277368         0.459224
 H        -0.623819         0.750859        -0.871567
 H        -0.210919        -0.974046        -1.134341
 H         2.452742        -0.737411        -2.025663
 H         4.394167         0.524127        -0.003560
 H         4.405890         2.637670        -1.656276
 H         3.211495         1.724268        -2.553327
 H         2.800753         4.194279        -0.930882
 H         1.637063         3.291332        -1.667640
 H         2.499020         0.938568         1.571073
