19
Iteration:  2117
 C        -0.125289        -0.006408        -0.227532
 C         1.396471         0.200488        -0.194983
 O         2.126792        -1.045169         0.032710
 C         2.470451        -0.253051        -1.103016
 C         3.497443         0.856508        -0.602907
 C         3.722640         2.101353        -1.326874
 C         2.374922         2.863429        -1.114988
 O         1.988855         2.708249         0.274020
 C         2.343767         1.226156         0.522490
 H        -0.434713        -0.531783         0.627706
 H        -0.753925         0.820139        -0.282038
 H        -0.298911        -0.706167        -1.069205
 H         2.292845        -0.780731        -2.044850
 H         4.456973         0.426615        -0.154389
 H         4.454373         2.760873        -0.699802
 H         3.959485         2.037601        -2.380284
 H         2.352294         3.858871        -1.524650
 H         1.648683         2.282265        -1.665659
 H         2.544446         0.819826         1.492781
