19
Iteration:   682charge 0 multiplicity 1
 C        -0.033425         0.263818        -0.271950
 C         1.467832         0.081404        -0.165527
 O         2.165894        -1.205077         0.061800
 C         2.457034        -0.256121        -1.128447
 C         3.437727         0.729351        -0.575364
 C         3.627696         2.131060        -1.351863
 C         2.327861         2.922124        -1.091685
 O         2.000009         2.642113         0.285458
 C         2.318560         1.216889         0.494642
 H        -0.431694         0.648360         0.733325
 H        -0.357079         1.186814        -0.921329
 H        -0.680851        -0.657184        -0.445055
 H         2.355293        -0.843886        -2.070344
 H         4.451195         0.448932        -0.278590
 H         4.373709         2.682029        -0.777804
 H         3.851018         2.165296        -2.485859
 H         2.626197         3.958874        -1.376257
 H         1.517261         2.760163        -1.757080
 H         2.637729         1.033971         1.540339
