19
Iteration:  4953charge 0 multiplicity 1
 C        -0.062331         0.014950        -0.189733
 C         1.408433         0.155183        -0.143039
 O         2.193640        -1.059351        -0.073506
 C         2.485348        -0.154212        -1.193442
 C         3.404186         0.865707        -0.517520
 C         3.626894         2.036084        -1.408832
 C         2.433508         2.926450        -1.026849
 O         2.015316         2.570154         0.279474
 C         2.258467         1.258479         0.553300
 H        -0.363472        -0.496129         0.829143
 H        -0.733297         0.998926        -0.196407
 H        -0.344905        -0.728619        -0.988825
 H         1.989065        -0.637124        -2.111847
 H         4.395510         0.416612        -0.211159
 H         4.598425         2.518071        -1.316546
 H         3.734634         1.833817        -2.530919
 H         2.763033         3.943074        -0.916139
 H         1.715255         2.990104        -1.807846
 H         2.486406         1.205521         1.699470
