19
Iteration:  2717
 C        -0.035592         0.104920        -0.158771
 C         1.491628         0.147823        -0.117512
 O         2.183774        -1.157138         0.071247
 C         2.566930        -0.315740        -1.089200
 C         3.499868         0.831476        -0.491139
 C         3.567049         2.032997        -1.484164
 C         2.577121         3.155572        -0.860030
 O         1.730661         2.476299        -0.015667
 C         2.204121         1.322654         0.406812
 H        -0.347809        -0.565526         0.637537
 H        -0.299854         1.178185         0.059711
 H        -0.589210        -0.262987        -1.031328
 H         2.504138        -0.643487        -2.171690
 H         4.453067         0.614082         0.045852
 H         4.583988         2.301811        -1.486464
 H         3.385348         1.570323        -2.453304
 H         3.106099         3.805195        -0.250105
 H         1.943331         3.693992        -1.586317
 H         2.403718         1.284807         1.497926
