19
Iteration:   784
 C        -0.150058         0.088942        -0.120868
 C         1.444001         0.230635        -0.162270
 O         2.087164        -0.960982         0.057654
 C         2.489674        -0.274016        -1.134331
 C         3.449863         0.765403        -0.566237
 C         3.736884         2.139583        -1.284199
 C         2.373114         2.881202        -1.119117
 O         1.978182         2.540106         0.186940
 C         2.386998         1.206685         0.372682
 H        -0.330316        -0.818633         0.600250
 H        -0.700744         0.990601         0.236128
 H        -0.568077        -0.128887        -1.163200
 H         2.419839        -0.842069        -2.083329
 H         4.317132         0.253415        -0.111457
 H         4.589156         2.660534        -0.724157
 H         3.931837         2.100773        -2.365548
 H         2.606794         3.931772        -1.107010
 H         1.604183         2.554609        -1.814327
 H         2.553521         1.022747         1.419717
