19
Iteration:  4093
 C        -0.032206         0.177280        -0.320194
 C         1.438263         0.109717        -0.214030
 O         2.116754        -1.092938         0.128417
 C         2.515203        -0.197106        -1.091121
 C         3.528278         0.906606        -0.588342
 C         3.526050         2.131681        -1.429657
 C         2.304948         2.938663        -0.972260
 O         2.033359         2.503823         0.297172
 C         2.349636         1.156397         0.459248
 H        -0.532838         0.321016         0.521324
 H        -0.366855         0.904691        -1.149533
 H        -0.416014        -0.763909        -0.754672
 H         2.661043        -0.678261        -1.992919
 H         4.472876         0.543457        -0.177965
 H         4.441803         2.600932        -1.206871
 H         3.460290         1.862948        -2.476794
 H         2.475278         3.979572        -0.970244
 H         1.462529         2.551310        -1.590915
 H         2.614940         0.871478         1.504937
