19
Iteration:  4325charge 0 multiplicity 1
 C        -0.092468         0.049269        -0.160756
 C         1.385737         0.076963        -0.120517
 O         2.202984        -1.181314        -0.035138
 C         2.461024        -0.208644        -1.090754
 C         3.433079         0.830009        -0.599538
 C         3.697325         2.191553        -1.361995
 C         2.448009         3.033670        -1.031426
 O         1.901200         2.551501         0.201380
 C         2.312003         1.245958         0.502299
 H        -0.600755        -0.396811         0.757411
 H        -0.457578         1.134646        -0.369570
 H        -0.380018        -0.582214        -0.975065
 H         2.276316        -0.566207        -2.139314
 H         4.435445         0.444442        -0.383322
 H         4.664142         2.570257        -0.943836
 H         3.871002         1.987105        -2.420239
 H         2.688677         4.122927        -0.845463
 H         1.701459         2.949326        -1.901325
 H         2.630162         1.228924         1.544418
