19
Iteration:  4788
 C        -0.155425        -0.168090        -0.229351
 C         1.378611         0.082211        -0.190735
 O         2.287543        -1.077733         0.181631
 C         2.486145        -0.409820        -1.041439
 C         3.330591         0.860924        -0.705495
 C         3.437715         2.136921        -1.488276
 C         2.876004         3.306691        -0.716519
 O         1.875447         2.647739         0.100080
 C         2.190650         1.217290         0.273010
 H        -0.625117        -0.345530         0.795651
 H        -0.696145         0.721422        -0.495198
 H        -0.426124        -0.973017        -0.863329
 H         2.400164        -1.100581        -1.834090
 H         4.289179         0.508288        -0.261133
 H         4.536461         2.220757        -1.811769
 H         2.942406         2.013587        -2.498079
 H         3.728273         3.774072        -0.004698
 H         2.447000         4.205118        -1.064242
 H         2.495910         0.992108         1.341276
