19
Iteration:  1425
 C        -0.031947         0.159971        -0.354197
 C         1.398528         0.144434        -0.076077
 O         2.097835        -1.129050         0.057596
 C         2.585561        -0.243491        -0.999105
 C         3.496370         0.886725        -0.512804
 C         3.540925         2.063775        -1.436444
 C         2.340467         2.875628        -1.134969
 O         1.991590         2.552102         0.272917
 C         2.379751         1.257229         0.523109
 H        -0.614089        -0.157206         0.487219
 H        -0.297297         1.160608        -0.659756
 H        -0.215322        -0.412050        -1.255577
 H         2.334540        -0.511009        -2.074312
 H         4.474274         0.427054        -0.285481
 H         4.419654         2.695615        -1.124497
 H         3.744842         2.001437        -2.604553
 H         2.382327         3.995505        -1.146462
 H         1.547994         2.527845        -1.725579
 H         2.512324         1.213280         1.628012
