19
Iteration:  1608charge 0 multiplicity 1
 C        -0.144596        -0.066953        -0.005268
 C         1.403800         0.086366        -0.201980
 O         2.179113        -1.076455        -0.044030
 C         2.490559        -0.189518        -1.112043
 C         3.453740         0.854725        -0.417285
 C         3.763954         2.063884        -1.326156
 C         2.623118         3.071047        -1.052113
 O         1.829426         2.596737         0.018333
 C         2.199522         1.274210         0.390499
 H        -0.237734        -0.459864         1.110011
 H        -0.897698         0.787281         0.090874
 H        -0.698600        -0.772543        -0.720620
 H         2.517168        -0.713880        -2.105459
 H         4.218972         0.490500         0.241486
 H         4.701963         2.594553        -1.319249
 H         3.740831         1.646764        -2.340448
 H         2.992603         4.059094        -0.776351
 H         1.969311         3.129290        -1.970444
 H         2.307800         1.238399         1.512143
