19
Iteration:  1789
 C        -0.118818         0.101477        -0.344332
 C         1.383723         0.166657        -0.246587
 O         2.160692        -1.082930         0.169121
 C         2.525763        -0.359754        -1.058669
 C         3.515421         0.855950        -0.540773
 C         3.599038         2.136784        -1.469651
 C         2.365333         2.968235        -1.029301
 O         1.984515         2.582967         0.299437
 C         2.333615         1.200881         0.475237
 H        -0.639892        -0.157315         0.677416
 H        -0.434941         1.167950        -0.677091
 H        -0.422532        -0.655139        -1.174432
 H         2.628796        -1.045973        -1.907764
 H         4.598750         0.837183        -0.199113
 H         4.500563         2.645469        -1.081873
 H         3.709859         1.979309        -2.537846
 H         2.810845         3.989840        -1.082289
 H         1.552711         2.858986        -1.833081
 H         2.357722         0.981036         1.528164
