19
Iteration:  4653charge 0 multiplicity 1
 C        -0.062393         0.056785        -0.264764
 C         1.443039         0.136887        -0.137750
 O         2.207974        -1.141573         0.019471
 C         2.496275        -0.294753        -1.031292
 C         3.367575         0.856833        -0.545434
 C         3.531768         2.033214        -1.566428
 C         2.574055         3.185587        -0.932904
 O         1.902974         2.544673         0.270639
 C         2.301103         1.232941         0.491895
 H        -0.504429        -0.018751         0.758098
 H        -0.443059         0.846920        -0.807200
 H        -0.372650        -0.907073        -0.766964
 H         2.465536        -0.595952        -2.141069
 H         4.356952         0.536023        -0.265579
 H         4.580036         2.407533        -1.701088
 H         3.385720         1.668955        -2.618029
 H         3.041851         4.198068        -0.706750
 H         1.775477         3.499973        -1.502484
 H         2.356066         0.868719         1.586030
