19
Iteration:  1716
 C        -0.071988         0.241512        -0.291498
 C         1.459098         0.185842        -0.230111
 O         2.056625        -1.134584        -0.000626
 C         2.647652        -0.191790        -1.092149
 C         3.551101         0.911453        -0.335997
 C         3.572824         2.059314        -1.444124
 C         2.249753         2.729285        -1.136414
 O         2.015854         2.595763         0.321684
 C         2.357338         1.236270         0.543173
 H        -0.494410         0.016745         0.672902
 H        -0.352089         1.133695        -0.762495
 H        -0.398237        -0.611794        -0.927788
 H         2.631806        -0.646191        -2.141559
 H         4.504970         0.575812         0.046628
 H         4.198460         2.944061        -1.440500
 H         3.422047         1.493821        -2.492113
 H         2.440158         3.735173        -1.397166
 H         1.477303         2.404778        -1.811616
 H         2.459462         0.960723         1.602699
