19
Iteration:   241
 C        -0.096159         0.145974        -0.114346
 C         1.381646         0.131756        -0.308990
 O         2.047443        -1.059962         0.051470
 C         2.521159        -0.293917        -1.115540
 C         3.528922         0.711796        -0.583674
 C         3.684842         2.158428        -1.346378
 C         2.398844         2.946482        -1.071142
 O         2.082027         2.647895         0.300044
 C         2.250356         1.173340         0.390530
 H        -0.232152        -0.274321         0.909291
 H        -0.612359         1.112734        -0.001415
 H        -0.748813        -0.521382        -0.689352
 H         2.517526        -0.707997        -2.216204
 H         4.439044         0.344522        -0.285036
 H         4.623081         2.685066        -0.982821
 H         3.752820         2.085231        -2.411593
 H         2.413004         4.064494        -1.276400
 H         1.613555         2.512430        -1.751081
 H         2.365053         1.053737         1.505572
