19
Iteration:   323charge 0 multiplicity 1
 C        -0.093400         0.254604        -0.196395
 C         1.451796         0.199906        -0.174328
 O         2.032764        -1.165678        -0.045770
 C         2.469132        -0.253951        -1.152124
 C         3.563150         0.756341        -0.560970
 C         3.591387         2.147928        -1.336600
 C         2.268809         2.864374        -1.064219
 O         2.041161         2.589409         0.277463
 C         2.432128         1.209866         0.560215
 H        -0.344894         0.311241         0.860719
 H        -0.308440         1.164467        -0.756737
 H        -0.494475        -0.622558        -0.705456
 H         2.467860        -0.752267        -2.049547
 H         4.672351         0.407973        -0.308770
 H         4.518935         2.622771        -0.963994
 H         3.774614         1.903377        -2.448507
 H         2.457648         3.862567        -1.427796
 H         1.511771         2.368967        -1.794354
 H         2.597496         1.249142         1.614830
