19
Iteration:  3798
 C        -0.058748        -0.235069        -0.278426
 C         1.355481         0.162279        -0.089784
 O         2.158028        -1.028644         0.162534
 C         2.438361        -0.255144        -1.031820
 C         3.393625         0.896868        -0.630389
 C         3.414929         2.054698        -1.647583
 C         2.781293         3.144446        -0.856093
 O         1.945228         2.605539         0.139978
 C         2.264350         1.287516         0.525639
 H        -0.502463        -0.735280         0.552120
 H        -0.612951         0.697348        -0.543989
 H        -0.017837        -1.000261        -1.184566
 H         2.587802        -0.743843        -2.050464
 H         4.315247         0.561576        -0.137645
 H         4.444981         2.330043        -1.793607
 H         3.024952         1.760984        -2.651222
 H         3.605429         3.619823        -0.319569
 H         2.188686         3.867755        -1.533442
 H         2.470122         1.197627         1.559998
