19
Iteration:  2707
 C        -0.035704         0.126816        -0.135622
 C         1.416859         0.037780        -0.170637
 O         2.185962        -1.099543        -0.001574
 C         2.604543        -0.320608        -1.014867
 C         3.500135         0.835245        -0.513325
 C         3.561372         2.047110        -1.459960
 C         2.626827         3.157344        -0.903410
 O         1.693455         2.479163        -0.036786
 C         2.278566         1.294415         0.541729
 H        -0.364519        -0.434283         0.706060
 H        -0.506247         1.139277        -0.006811
 H        -0.425215        -0.275471        -1.044157
 H         2.478520        -0.771014        -2.010639
 H         4.474988         0.570940         0.008601
 H         4.621203         2.323264        -1.623552
 H         3.149992         1.746507        -2.516314
 H         3.176890         3.954768        -0.447955
 H         1.966174         3.621521        -1.598961
 H         2.156054         1.351856         1.643353
