19
Iteration:  1084
 C         0.027888         0.174200        -0.102591
 C         1.449645         0.176409        -0.285606
 O         2.135504        -1.038850         0.045671
 C         2.533071        -0.123016        -1.194488
 C         3.451664         0.785333        -0.496507
 C         3.746292         2.094546        -1.296346
 C         2.336293         2.831512        -1.110277
 O         1.850123         2.502010         0.207484
 C         2.260374         1.201058         0.434819
 H        -0.211455         0.328362         1.003150
 H        -0.439946         1.126563        -0.548954
 H        -0.571736        -0.774288        -0.296026
 H         2.496430        -0.699563        -2.193201
 H         4.391149         0.286829        -0.191132
 H         4.474784         2.650486        -0.709632
 H         4.052741         1.944209        -2.389916
 H         2.503624         3.930059        -1.125334
 H         1.735161         2.465922        -1.915443
 H         2.367268         1.096246         1.554473
