19
Iteration:  3270
 C        -0.046205        -0.161124        -0.285094
 C         1.397669         0.217574        -0.186120
 O         2.191991        -1.152225         0.116330
 C         2.442256        -0.210787        -1.078428
 C         3.403678         0.792766        -0.563549
 C         3.530258         2.047803        -1.462100
 C         2.493313         3.091223        -1.043032
 O         2.076893         2.750130         0.272342
 C         2.272697         1.281944         0.484621
 H        -0.562897        -0.456283         0.686435
 H        -0.684889         0.622768        -0.861659
 H        -0.178522        -0.940050        -1.002359
 H         2.291237        -0.630308        -2.055710
 H         4.276429         0.311794         0.020827
 H         4.476437         2.496209        -1.273625
 H         3.427472         1.680592        -2.449106
 H         2.843453         4.147867        -0.844567
 H         1.594410         2.991514        -1.733000
 H         2.531252         0.952804         1.535174
