19
Iteration:  2397charge 0 multiplicity 1
 C        -0.144627         0.058153        -0.193664
 C         1.434328         0.234886        -0.143954
 O         2.101360        -1.061849        -0.089129
 C         2.565991        -0.156493        -1.084431
 C         3.501830         0.843391        -0.443118
 C         3.687127         2.096877        -1.324356
 C         2.313191         2.822192        -1.205401
 O         2.037456         2.581717         0.272782
 C         2.325450         1.221514         0.505021
 H        -0.605465        -0.169445         0.756876
 H        -0.619495         0.941622        -0.585651
 H        -0.322074        -0.762150        -0.865052
 H         2.601494        -0.635743        -2.006721
 H         4.367788         0.306320        -0.029384
 H         4.383072         2.739618        -0.788875
 H         3.838803         1.899965        -2.465077
 H         2.173942         3.917140        -1.411053
 H         1.682556         2.253047        -1.852374
 H         2.318789         1.196932         1.618917
