19
Iteration:  2864
 C        -0.100809        -0.031858        -0.284874
 C         1.385505         0.085220        -0.056202
 O         2.235836        -1.049814         0.167828
 C         2.506095        -0.322153        -0.999872
 C         3.394732         0.844622        -0.649875
 C         3.455375         2.035756        -1.603119
 C         2.739724         3.229553        -0.678143
 O         1.814390         2.534536        -0.023115
 C         2.298573         1.248834         0.397288
 H        -0.695664         0.053821         0.621597
 H        -0.425679         0.765052        -0.941583
 H        -0.249002        -1.066952        -0.723627
 H         2.693346        -1.059636        -1.840808
 H         4.457696         0.516536        -0.362402
 H         4.544192         2.352693        -1.895136
 H         2.661703         2.154073        -2.505698
 H         3.580648         3.583366        -0.052199
 H         2.286908         4.092560        -1.005012
 H         2.420262         1.217643         1.514592
