19
Iteration:   282charge 0 multiplicity 1
 C        -0.082776         0.241361        -0.230289
 C         1.414946         0.116555        -0.039194
 O         2.160610        -1.137775        -0.052274
 C         2.401984        -0.121820        -1.118431
 C         3.509742         0.737681        -0.559847
 C         3.661034         2.110039        -1.400822
 C         2.416206         2.863390        -1.105613
 O         1.931323         2.557763         0.247484
 C         2.426740         1.218824         0.596389
 H        -0.674301         0.386528         0.719653
 H        -0.237115         1.183397        -0.774100
 H        -0.509265        -0.541423        -0.871233
 H         2.147440        -0.412799        -2.133177
 H         4.431020         0.060020        -0.340864
 H         4.581822         2.713475        -1.289390
 H         3.312202         1.812142        -2.461472
 H         2.549061         3.924552        -1.006359
 H         1.665112         2.471800        -1.783394
 H         2.528011         1.132751         1.746039
