19
Iteration:  4207
 C        -0.083740         0.246405        -0.239380
 C         1.405327         0.058369        -0.153976
 O         2.216025        -1.182109        -0.004051
 C         2.564019        -0.263166        -1.029929
 C         3.430770         0.850114        -0.558233
 C         3.519294         2.110427        -1.437911
 C         2.464263         3.092880        -0.977014
 O         1.876416         2.460351         0.188982
 C         2.336713         1.185877         0.469671
 H        -0.507936        -0.221197         0.716378
 H        -0.261114         1.259810        -0.384843
 H        -0.454566        -0.461144        -0.931624
 H         2.751530        -0.515996        -2.134307
 H         4.416281         0.499246        -0.188319
 H         4.332266         2.735611        -1.061476
 H         3.643780         2.040145        -2.488961
 H         2.891575         4.050421        -0.547979
 H         1.683084         3.112586        -1.687953
 H         2.616441         1.112065         1.499738
