19
Iteration:   587charge 0 multiplicity 1
 C        -0.142120         0.198495        -0.275683
 C         1.410602         0.101074        -0.107901
 O         2.205810        -1.112333         0.023314
 C         2.388269        -0.238307        -1.043333
 C         3.491634         0.794143        -0.579509
 C         3.679424         2.082316        -1.431434
 C         2.368493         2.926074        -1.069656
 O         2.015204         2.611255         0.303956
 C         2.396787         1.218333         0.474996
 H        -0.711875        -0.340173         0.515123
 H        -0.441759         1.236528        -0.147911
 H        -0.581214        -0.098248        -1.234422
 H         2.330578        -0.636793        -2.083796
 H         4.281206         0.193857        -0.054791
 H         4.623674         2.613784        -1.234639
 H         3.574057         1.787662        -2.496302
 H         2.366164         4.011594        -1.133514
 H         1.576716         2.587691        -1.887062
 H         2.571933         1.121355         1.548675
