19
Iteration:  3118charge 0 multiplicity 1
 C        -0.131440         0.091240        -0.181283
 C         1.383379         0.087997        -0.176295
 O         2.179912        -1.143733         0.004106
 C         2.501346        -0.188845        -1.064965
 C         3.456496         0.890109        -0.530100
 C         3.639706         2.105990        -1.364457
 C         2.365391         2.944176        -1.148521
 O         1.976716         2.599086         0.194243
 C         2.384075         1.202862         0.511657
 H        -0.374138        -0.517345         0.744957
 H        -0.525872         1.112746         0.032774
 H        -0.596307        -0.484839        -0.989561
 H         2.696931        -0.723271        -1.984811
 H         4.366758         0.664109        -0.001845
 H         4.545586         2.550578        -0.928250
 H         3.749074         1.938875        -2.494244
 H         2.677247         4.016633        -1.239053
 H         1.568959         2.834121        -1.869092
 H         2.433404         1.164752         1.630838
