19
Iteration:  4061
 C         0.031585         0.358330        -0.155248
 C         1.517919         0.191200        -0.178013
 O         2.142292        -1.202464        -0.139934
 C         2.607183        -0.228893        -1.144364
 C         3.571720         0.816008        -0.440074
 C         3.522349         2.053443        -1.297202
 C         2.175778         2.829484        -1.112675
 O         1.889118         2.562219         0.244918
 C         2.379426         1.197322         0.531497
 H        -0.386768         0.461850         0.778366
 H        -0.237176         1.309059        -0.764197
 H        -0.449377        -0.497539        -0.640143
 H         2.623737        -0.529741        -2.150914
 H         4.524154         0.504386         0.016045
 H         4.373770         2.627825        -1.076985
 H         3.715474         1.746468        -2.304272
 H         2.149984         3.866229        -1.402196
 H         1.245074         2.450915        -1.573711
 H         2.503671         1.140985         1.620327
