19
Iteration:  4138charge 0 multiplicity 1
 C        -0.091762        -0.143796        -0.454831
 C         1.400378         0.101006        -0.146069
 O         2.126375        -1.107836         0.149848
 C         2.476188        -0.239589        -1.064817
 C         3.394713         0.822625        -0.589663
 C         3.524620         2.139455        -1.498310
 C         2.455647         3.123258        -0.949580
 O         2.157868         2.680296         0.395679
 C         2.325055         1.256609         0.418013
 H        -0.645007        -0.315435         0.407609
 H        -0.529632         0.745703        -1.034829
 H        -0.207376        -1.038844        -1.035710
 H         2.401809        -0.731694        -1.984679
 H         4.358126         0.440606        -0.209981
 H         4.542610         2.430356        -1.620664
 H         3.118039         1.794599        -2.453544
 H         2.863700         4.125647        -0.825999
 H         1.477119         3.044640        -1.377033
 H         2.496347         1.083213         1.473340
