19
Iteration:  4116charge 0 multiplicity 1
 C        -0.078986        -0.016499        -0.465144
 C         1.411035         0.149406        -0.157014
 O         2.214827        -1.058300         0.111735
 C         2.459030        -0.396321        -1.046043
 C         3.383645         0.785779        -0.652966
 C         3.511198         2.156652        -1.524126
 C         2.390868         3.053797        -0.986489
 O         2.090968         2.651765         0.425987
 C         2.357854         1.261607         0.537838
 H        -0.662259         0.070007         0.384781
 H        -0.438502         0.814933        -1.199617
 H        -0.374957        -0.915736        -0.952244
 H         2.426090        -0.877920        -1.961215
 H         4.362460         0.406876        -0.299986
 H         4.403084         2.554969        -1.101917
 H         3.599203         1.990667        -2.577343
 H         2.844428         4.045897        -0.977935
 H         1.380206         2.913260        -1.327638
 H         2.592041         1.018719         1.579061
