19
Iteration:   279charge 0 multiplicity 1
 C        -0.110668         0.238639        -0.217741
 C         1.415965         0.132205        -0.041883
 O         2.129367        -1.151762        -0.056956
 C         2.454730        -0.146587        -1.101979
 C         3.514693         0.716089        -0.568942
 C         3.647879         2.137277        -1.401592
 C         2.403622         2.879505        -1.093306
 O         1.926372         2.565678         0.262057
 C         2.444724         1.230064         0.555758
 H        -0.617866         0.271457         0.751369
 H        -0.299283         1.174441        -0.759532
 H        -0.466407        -0.579728        -0.864426
 H         2.134060        -0.410220        -2.027582
 H         4.481056         0.064751        -0.301719
 H         4.594568         2.609980        -1.188344
 H         3.474889         1.786562        -2.513066
 H         2.624918         3.934408        -1.067720
 H         1.624114         2.543397        -1.852267
 H         2.543575         1.179592         1.613549
