19
Iteration:  1421charge 0 multiplicity 1
 C        -0.067936         0.171451        -0.334233
 C         1.422541         0.107405        -0.104426
 O         2.119898        -1.160389         0.050029
 C         2.575551        -0.228051        -1.004988
 C         3.501023         0.859499        -0.490717
 C         3.555404         2.073680        -1.504237
 C         2.385902         2.869484        -1.117634
 O         1.967184         2.592035         0.287904
 C         2.354294         1.285917         0.515876
 H        -0.584886        -0.165854         0.603705
 H        -0.260144         1.256669        -0.537309
 H        -0.227828        -0.471953        -1.258709
 H         2.430853        -0.560240        -1.979121
 H         4.440447         0.461567        -0.168914
 H         4.369803         2.678137        -1.122998
 H         3.804910         1.995195        -2.536866
 H         2.382767         3.954444        -1.154738
 H         1.431562         2.643636        -1.760723
 H         2.334899         1.071289         1.631198
