19
Iteration:  3499charge 0 multiplicity 1
 C        -0.043698        -0.116510        -0.317464
 C         1.401466         0.176112        -0.075338
 O         2.173238        -1.060491         0.086560
 C         2.467109        -0.270391        -1.039803
 C         3.419218         0.857764        -0.499866
 C         3.460246         2.041675        -1.577386
 C         2.609950         3.145816        -0.951084
 O         1.934957         2.560249         0.182672
 C         2.333342         1.240693         0.461424
 H        -0.546980        -0.055597         0.669479
 H        -0.412045         0.814575        -0.814173
 H        -0.341102        -0.991067        -0.742371
 H         2.261770        -0.709007        -2.056004
 H         4.418031         0.698962         0.050777
 H         4.641209         2.289865        -1.587818
 H         3.059340         1.739315        -2.573661
 H         3.228934         3.955089        -0.506415
 H         1.877793         3.472543        -1.680521
 H         2.543415         1.332381         1.560090
