19
Iteration:  1312charge 0 multiplicity 1
 C        -0.102896         0.020513        -0.092543
 C         1.377725         0.119858        -0.107590
 O         2.206269        -1.075858        -0.022748
 C         2.406889        -0.169345        -1.138166
 C         3.419780         0.831649        -0.561869
 C         3.827364         2.162953        -1.274973
 C         2.480933         2.844954        -1.142428
 O         1.884057         2.649041         0.166424
 C         2.291719         1.262272         0.464986
 H        -0.562530        -0.052120         0.908508
 H        -0.651195         0.755083        -0.730461
 H        -0.404601        -0.928119        -0.575016
 H         2.331648        -0.666856        -2.106072
 H         4.150968         0.216121        -0.082235
 H         4.657395         2.724185        -0.806293
 H         3.859380         2.069177        -2.421960
 H         2.559761         3.900623        -1.274904
 H         1.847630         2.418439        -1.867617
 H         2.583492         0.972493         1.517524
