19
Iteration:  2039
 C         0.027615         0.239984        -0.323365
 C         1.509644         0.167720        -0.143897
 O         2.099477        -1.146569         0.016474
 C         2.576914        -0.203198        -0.993981
 C         3.545345         0.864986        -0.444725
 C         3.467774         2.013474        -1.449224
 C         2.389488         2.939973        -1.121358
 O         1.836182         2.510885         0.259929
 C         2.350251         1.201818         0.565619
 H        -0.519945         0.359818         0.574334
 H        -0.153085         0.861908        -1.167749
 H        -0.414626        -0.652889        -0.666657
 H         2.736452        -0.350222        -2.113871
 H         4.560961         0.449007        -0.148278
 H         4.408391         2.733123        -1.572791
 H         3.310885         1.735904        -2.519055
 H         2.810742         3.965765        -0.943658
 H         1.545662         3.016598        -1.836558
 H         2.569286         0.795333         1.544215
