19
Iteration:  3229
 C        -0.137847         0.110923        -0.204610
 C         1.361784         0.160313        -0.225344
 O         2.208689        -1.118190         0.119294
 C         2.563397        -0.258701        -1.067456
 C         3.498039         0.859134        -0.542927
 C         3.637502         2.095781        -1.410184
 C         2.324716         3.014617        -1.047486
 O         1.961731         2.490780         0.228954
 C         2.361492         1.212224         0.421485
 H        -0.522497         0.134159         0.843871
 H        -0.619141         1.005771        -0.803116
 H        -0.535104        -0.753746        -0.698074
 H         2.739648        -0.625506        -2.063543
 H         4.456811         0.554701        -0.193103
 H         4.571569         2.603861        -1.334550
 H         3.571611         1.990420        -2.544380
 H         2.779292         4.008378        -0.951340
 H         1.457196         3.063376        -1.790920
 H         2.302610         1.164619         1.517857
