19
Iteration:  2415charge 0 multiplicity 1
 C        -0.063732         0.035345        -0.238887
 C         1.406169         0.153868        -0.213079
 O         2.153370        -1.050959         0.023629
 C         2.429746        -0.226378        -1.150369
 C         3.482166         0.815347        -0.553089
 C         3.704007         2.156488        -1.244636
 C         2.343190         2.765058        -1.166494
 O         1.998994         2.683229         0.251152
 C         2.332376         1.285291         0.512805
 H        -0.419908        -0.111760         0.823271
 H        -0.576781         0.964057        -0.671411
 H        -0.520124        -0.882278        -0.669500
 H         2.294289        -0.563394        -2.232786
 H         4.372145         0.290642        -0.122351
 H         4.405413         2.694966        -0.516917
 H         4.006851         1.894918        -2.184206
 H         2.470181         3.853371        -1.207739
 H         1.542240         2.401832        -1.894596
 H         2.618329         0.975421         1.553742
