19
Iteration:  3603charge 0 multiplicity 1
 C        -0.114596        -0.136866        -0.241646
 C         1.381602         0.000659        -0.081679
 O         2.235117        -1.068338         0.185412
 C         2.499340        -0.265908        -0.992224
 C         3.410968         0.906180        -0.633464
 C         3.419018         2.078758        -1.641778
 C         2.882254         3.237430        -0.748343
 O         1.825993         2.567825        -0.007120
 C         2.211268         1.230534         0.465547
 H        -0.630207        -0.414076         0.716654
 H        -0.353617         0.905696        -0.524900
 H        -0.274193        -0.809472        -1.183227
 H         2.290036        -0.693304        -1.945086
 H         4.352141         0.475170        -0.334178
 H         4.332620         2.443873        -2.039091
 H         2.739232         1.735935        -2.520571
 H         3.714759         3.664219        -0.201228
 H         2.408217         4.084486        -1.286528
 H         2.395655         1.449221         1.580450
