19
Iteration:  2318
 C        -0.032024         0.202946        -0.337783
 C         1.395521         0.136021        -0.170614
 O         2.126919        -1.086366         0.131744
 C         2.546355        -0.327284        -1.023788
 C         3.476176         0.843930        -0.608916
 C         3.676412         2.193300        -1.369111
 C         2.297906         2.944479        -1.067471
 O         1.932349         2.525015         0.274498
 C         2.365334         1.132773         0.455479
 H        -0.584284        -0.275843         0.479941
 H        -0.326906         1.291872        -0.422299
 H        -0.406058        -0.258606        -1.174462
 H         2.579992        -0.990867        -1.960604
 H         4.424168         0.300900        -0.296372
 H         4.547105         2.922238        -1.049395
 H         3.703137         2.075480        -2.587335
 H         2.422534         4.039385        -1.162745
 H         1.563989         2.611423        -1.770244
 H         2.653299         1.193271         1.550016
