19
Iteration:  2135
 C        -0.074315        -0.067582        -0.191977
 C         1.406021         0.150391        -0.135428
 O         2.137973        -1.064424        -0.057205
 C         2.458405        -0.088064        -1.100777
 C         3.468320         0.773264        -0.471535
 C         3.703845         2.139781        -1.342733
 C         2.362923         2.824706        -1.177940
 O         2.094195         2.611103         0.218062
 C         2.238440         1.318723         0.563056
 H        -0.515325        -0.710507         0.699532
 H        -0.565920         1.039224        -0.309680
 H        -0.511735        -0.571045        -1.062612
 H         2.451639        -0.471241        -2.161814
 H         4.404717         0.341685        -0.126565
 H         4.513549         2.746200        -0.963343
 H         3.853353         1.814305        -2.389736
 H         2.370517         3.972260        -1.191623
 H         1.545142         2.466737        -1.838668
 H         2.217424         1.459880         1.689895
