19
Iteration:  3453charge 0 multiplicity 1
 C        -0.054787        -0.053050        -0.172141
 C         1.350645         0.159565        -0.230359
 O         2.195950        -1.060821         0.120574
 C         2.470452        -0.325549        -1.051922
 C         3.395723         0.849716        -0.601642
 C         3.604586         2.067960        -1.420213
 C         2.509630         3.118449        -1.050031
 O         2.022891         2.617582         0.225751
 C         2.209692         1.245068         0.407538
 H        -0.389787        -0.643273         0.718275
 H        -0.547022         0.905953        -0.309386
 H        -0.265228        -0.710251        -1.005170
 H         2.476253        -0.716902        -2.040201
 H         4.353624         0.353557        -0.220939
 H         4.622468         2.568706        -1.043612
 H         3.578984         1.877954        -2.507353
 H         3.001793         4.084473        -0.797615
 H         1.657242         3.132388        -1.758143
 H         2.412440         0.944523         1.480795
