19
Iteration:  3506
 C        -0.037698        -0.043350        -0.291512
 C         1.461843         0.117084        -0.107540
 O         2.161000        -1.047756         0.113410
 C         2.471970        -0.298056        -1.106586
 C         3.427405         0.860585        -0.526120
 C         3.468880         1.989364        -1.530675
 C         2.602221         3.122987        -0.913536
 O         1.883388         2.594915         0.158334
 C         2.317515         1.282289         0.506093
 H        -0.415771         0.023061         0.769551
 H        -0.359736         0.723747        -0.986171
 H        -0.313800        -1.017050        -0.826248
 H         2.479728        -0.697534        -2.083240
 H         4.294765         0.585694         0.091976
 H         4.442384         2.297894        -1.821671
 H         2.965433         1.785725        -2.456614
 H         3.184818         4.010119        -0.564719
 H         1.901634         3.576144        -1.664257
 H         2.795102         1.034180         1.467672
