19
Iteration:  2735charge 0 multiplicity 1
 C        -0.053577         0.086996        -0.158395
 C         1.379120        -0.008049        -0.145490
 O         2.197959        -1.106092         0.081949
 C         2.539567        -0.264403        -1.013694
 C         3.429707         0.865986        -0.583593
 C         3.574144         2.118708        -1.469381
 C         2.709455         3.132683        -0.905104
 O         1.671083         2.513689        -0.010560
 C         2.331246         1.252566         0.509552
 H        -0.452300        -0.686371         0.603812
 H        -0.443525         1.063490        -0.070403
 H        -0.409900        -0.335280        -1.190922
 H         2.573692        -0.864752        -1.982675
 H         4.328538         0.526908        -0.154664
 H         4.683726         2.374154        -1.546534
 H         3.271202         1.872092        -2.486200
 H         3.336623         3.946864        -0.344020
 H         2.066819         3.644588        -1.740875
 H         2.449282         1.165511         1.590928
