19
Iteration:  4693
 C        -0.033759         0.234059        -0.340367
 C         1.443958         0.081831        -0.210437
 O         2.188257        -1.153778         0.168657
 C         2.567924        -0.402019        -0.976161
 C         3.440653         0.878324        -0.667980
 C         3.423225         2.100567        -1.618935
 C         2.535909         3.171984        -0.790946
 O         1.850142         2.423974         0.210192
 C         2.345165         1.203289         0.481566
 H        -0.406935         0.174825         0.655911
 H        -0.262101         1.354394        -0.791836
 H        -0.392423        -0.601353        -0.979876
 H         2.649391        -0.985363        -1.905549
 H         4.424013         0.665102        -0.194530
 H         4.412390         2.439072        -1.890176
 H         2.808738         1.970760        -2.502837
 H         3.168640         3.907326        -0.293238
 H         1.788410         3.785862        -1.509197
 H         2.749154         1.182013         1.465248
