19
Iteration:  2705charge 0 multiplicity 1
 C        -0.043653         0.126914        -0.132899
 C         1.419293         0.041974        -0.176525
 O         2.183605        -1.105270        -0.000509
 C         2.609247        -0.299945        -1.005030
 C         3.487933         0.845222        -0.505377
 C         3.567381         2.041771        -1.467955
 C         2.643295         3.155147        -0.909397
 O         1.684867         2.486778        -0.038861
 C         2.291762         1.258964         0.554774
 H        -0.414000        -0.436481         0.753084
 H        -0.477762         1.123278        -0.023005
 H        -0.429158        -0.318480        -1.095718
 H         2.517420        -0.807528        -2.031241
 H         4.432244         0.549112        -0.055630
 H         4.524596         2.393067        -1.630814
 H         3.124139         1.840767        -2.422532
 H         3.177163         3.939543        -0.481701
 H         1.980498         3.639799        -1.699023
 H         2.196419         1.370307         1.649149
