19
Iteration:   174
 C        -0.092748         0.233075        -0.190475
 C         1.436445         0.143071        -0.012272
 O         2.024043        -1.176096        -0.126056
 C         2.446822        -0.324050        -1.042425
 C         3.442284         0.845440        -0.529868
 C         3.677890         2.117628        -1.393118
 C         2.447710         2.961770        -1.154151
 O         1.881056         2.547435         0.225705
 C         2.523054         1.263542         0.566338
 H        -0.544722        -0.182304         0.766364
 H        -0.453371         1.228623        -0.477021
 H        -0.135024        -0.576965        -0.943382
 H         2.301658        -0.592567        -2.139833
 H         4.307603         0.507750        -0.019672
 H         4.628846         2.558688        -1.037901
 H         3.805949         1.945644        -2.479143
 H         2.530434         4.058790        -1.241445
 H         1.693680         2.597315        -1.936473
 H         3.032846         1.070586         1.617597
