19
Iteration:  2660charge 0 multiplicity 1
 C        -0.045938        -0.038383        -0.239033
 C         1.397877         0.145188        -0.072032
 O         2.226450        -1.116475         0.138371
 C         2.472498        -0.308288        -1.069435
 C         3.428367         0.792359        -0.609425
 C         3.532317         2.136946        -1.487075
 C         2.759743         3.178616        -0.844123
 O         1.708930         2.572981         0.000785
 C         2.282275         1.257937         0.496383
 H        -0.628828         0.066761         0.733393
 H        -0.532850         0.763304        -0.752146
 H        -0.206120        -0.975625        -0.905368
 H         2.635025        -0.782531        -2.122697
 H         4.380875         0.451859        -0.254895
 H         4.548287         2.182971        -1.596986
 H         3.182803         1.772091        -2.389701
 H         3.257412         3.886456        -0.305767
 H         2.179466         3.765111        -1.658714
 H         2.518434         1.040101         1.554349
