19
Iteration:   403charge 0 multiplicity 1
 C        -0.104902         0.138036        -0.283069
 C         1.400688         0.153811         0.040705
 O         2.046768        -1.187543        -0.043666
 C         2.445330        -0.228990        -1.052212
 C         3.458313         0.848026        -0.533208
 C         3.617544         2.080323        -1.462164
 C         2.412766         3.037441        -1.052748
 O         2.012464         2.520182         0.191955
 C         2.459995         1.245006         0.571766
 H        -0.660840        -0.433751         0.527430
 H        -0.621479         1.109243        -0.376511
 H        -0.132978        -0.494578        -1.191201
 H         2.352959        -0.409051        -2.196128
 H         4.501608         0.366534        -0.307599
 H         4.579723         2.576964        -1.209045
 H         3.555434         1.737519        -2.511061
 H         2.877534         4.040314        -0.960059
 H         1.593269         3.010908        -1.861438
 H         2.960660         1.330426         1.600901
