19
Iteration:  1978charge 0 multiplicity 1
 C        -0.130251        -0.001377        -0.372847
 C         1.380827         0.133334        -0.158386
 O         2.139956        -1.027300         0.118990
 C         2.549059        -0.310391        -1.085278
 C         3.447303         0.797911        -0.569655
 C         3.638510         2.144507        -1.400667
 C         2.365144         2.907549        -1.092767
 O         2.057010         2.668842         0.322925
 C         2.366473         1.238096         0.503153
 H        -0.829070        -0.103455         0.475040
 H        -0.484623         1.029626        -0.661748
 H        -0.322354        -0.717482        -1.279507
 H         2.342559        -0.782936        -2.041635
 H         4.433273         0.569574        -0.166973
 H         4.410297         2.703709        -1.003052
 H         3.829764         2.081298        -2.470363
 H         2.222155         3.947488        -1.213434
 H         1.528670         2.442440        -1.534968
 H         2.554840         1.098654         1.583250
