19
Iteration:  3918
 C        -0.101953        -0.038002        -0.181002
 C         1.434009         0.128170        -0.063248
 O         2.178836        -1.155050         0.085206
 C         2.494889        -0.254368        -1.072446
 C         3.409944         0.824492        -0.609400
 C         3.563008         2.070661        -1.584449
 C         2.657779         3.226427        -0.918189
 O         1.784774         2.589135         0.134089
 C         2.326188         1.235113         0.499680
 H        -0.645475        -0.254227         0.708187
 H        -0.658704         0.773040        -0.756864
 H        -0.257578        -1.069377        -0.777175
 H         2.467637        -0.883415        -2.039201
 H         4.371964         0.440339        -0.190305
 H         4.514675         2.497976        -1.522248
 H         3.472598         1.795540        -2.618901
 H         3.440179         3.810691        -0.462271
 H         2.032266         3.916169        -1.618436
 H         2.664523         1.164576         1.549592
