19
Iteration:  3034
 C        -0.099183        -0.008357        -0.115078
 C         1.417649         0.050825        -0.209751
 O         2.144723        -1.140066         0.004134
 C         2.547881        -0.233572        -1.089439
 C         3.443790         0.874068        -0.511477
 C         3.608297         2.018362        -1.469066
 C         2.586278         3.136223        -0.971065
 O         1.824569         2.545333         0.137107
 C         2.327372         1.334197         0.477926
 H        -0.286347         0.276885         0.911604
 H        -0.664476         0.703044        -0.826300
 H        -0.486501        -0.957236        -0.390990
 H         2.577945        -0.571558        -2.120610
 H         4.379289         0.766981         0.079217
 H         4.661393         2.323798        -1.330509
 H         3.329625         1.831298        -2.577827
 H         3.164991         3.936199        -0.543335
 H         1.800126         3.485185        -1.749529
 H         2.261231         1.101407         1.569844
