19
Iteration:   212
 C        -0.147602         0.121790        -0.175852
 C         1.367237         0.174161        -0.100828
 O         2.221764        -1.008817        -0.016225
 C         2.400804        -0.185087        -1.153537
 C         3.350713         0.793838        -0.496605
 C         3.695502         2.067259        -1.396180
 C         2.471547         2.896845        -1.150425
 O         2.056096         2.557427         0.258109
 C         2.329785         1.173501         0.524833
 H        -0.629774        -0.397105         0.654385
 H        -0.685275         1.074285        -0.159369
 H        -0.505756        -0.431267        -1.051443
 H         2.421112        -0.494226        -2.220076
 H         4.308592         0.272690        -0.165652
 H         4.592333         2.631424        -1.093676
 H         3.742285         1.747125        -2.454998
 H         2.683824         3.979439        -1.075030
 H         1.645645         2.657065        -1.824621
 H         2.604897         1.123644         1.537117
