19
Iteration:   724
 C        -0.024202         0.152169        -0.227349
 C         1.360841         0.242094        -0.047935
 O         2.104019        -1.087383        -0.055485
 C         2.508504        -0.086020        -1.093480
 C         3.512497         0.786044        -0.504784
 C         3.641808         2.013089        -1.413260
 C         2.376468         2.842524        -1.133420
 O         1.893706         2.504624         0.232211
 C         2.430196         1.238461         0.601504
 H        -0.540832        -0.084344         0.680322
 H        -0.430219         1.176077        -0.516908
 H        -0.371651        -0.532828        -0.995146
 H         2.305255        -0.394055        -2.153725
 H         4.443163         0.184640        -0.320266
 H         4.473724         2.667271        -1.183741
 H         3.798895         1.780131        -2.508011
 H         2.808421         3.928740        -1.115697
 H         1.651145         2.639427        -1.998560
 H         2.457517         1.142881         1.745148
