19
Iteration:  3937
 C        -0.030976        -0.138753        -0.153712
 C         1.415107         0.163894        -0.129367
 O         2.166982        -1.051346         0.051960
 C         2.435631        -0.270669        -1.099344
 C         3.384945         0.829779        -0.583618
 C         3.579394         2.080609        -1.410544
 C         2.663172         3.121260        -0.914251
 O         1.914708         2.593023         0.105116
 C         2.269626         1.308140         0.380527
 H        -0.233975        -0.406042         0.878502
 H        -0.605408         0.711840        -0.205329
 H        -0.439792        -0.930250        -0.833988
 H         2.300162        -0.721332        -2.143586
 H         4.212942         0.357029        -0.040975
 H         4.644830         2.352935        -1.524448
 H         3.161316         1.773948        -2.373312
 H         2.947983         4.084648        -0.460400
 H         1.984963         3.248577        -1.782838
 H         2.352668         1.182679         1.523011
