19
Iteration:   716charge 0 multiplicity 1
 C        -0.072718         0.195158        -0.274503
 C         1.434648         0.161236        -0.069102
 O         2.069582        -1.081003         0.001208
 C         2.404574        -0.071230        -1.074048
 C         3.594819         0.785243        -0.526292
 C         3.628690         2.080858        -1.398580
 C         2.392561         2.839197        -1.108151
 O         1.896923         2.488996         0.181633
 C         2.460307         1.186111         0.600252
 H        -0.489724         0.025089         0.779315
 H        -0.446152         1.131378        -0.824146
 H        -0.262959        -0.709474        -0.952824
 H         2.333696        -0.246206        -2.124620
 H         4.394138         0.232363        -0.075601
 H         4.502126         2.722039        -1.247182
 H         3.653120         1.771692        -2.504082
 H         2.514477         3.888798        -0.952501
 H         1.619859         2.674789        -1.790150
 H         2.834288         1.304738         1.605878
