19
Iteration:  2544
 C        -0.041276        -0.025255        -0.286388
 C         1.402047         0.099408        -0.136542
 O         2.210186        -1.095194         0.235240
 C         2.500397        -0.321586        -1.010177
 C         3.405178         0.807300        -0.660703
 C         3.518160         2.076418        -1.480798
 C         2.749894         3.244675        -0.816803
 O         1.736434         2.590566         0.002040
 C         2.268078         1.197135         0.441486
 H        -0.433732        -0.420498         0.612153
 H        -0.626515         0.886939        -0.466038
 H        -0.149790        -0.642215        -1.177285
 H         2.632239        -0.793097        -2.018801
 H         4.370374         0.535781        -0.182104
 H         4.520127         2.184305        -1.899539
 H         2.973969         1.919309        -2.452013
 H         3.534219         3.854002        -0.346544
 H         2.141394         3.898766        -1.353112
 H         2.487648         1.158395         1.518901
