19
Iteration:  3831charge 0 multiplicity 1
 C        -0.096316        -0.072095        -0.260408
 C         1.384708         0.085522        -0.134241
 O         2.237456        -1.063151         0.211799
 C         2.554236        -0.418526        -1.015945
 C         3.408452         0.849536        -0.647525
 C         3.308942         2.104363        -1.607572
 C         2.847129         3.216754        -0.726595
 O         1.883471         2.601006         0.057554
 C         2.227754         1.254370         0.401828
 H        -0.650366        -0.191775         0.641208
 H        -0.230690         0.942240        -0.761819
 H        -0.327899        -0.895024        -1.066608
 H         2.541507        -1.144765        -1.920869
 H         4.355244         0.573521        -0.145875
 H         4.187629         2.461810        -2.095654
 H         2.567118         1.869110        -2.387460
 H         3.550685         3.828964        -0.161173
 H         2.266698         4.012555        -1.332114
 H         2.419968         1.143863         1.439861
