19
Iteration:  3021charge 0 multiplicity 1
 C        -0.082403         0.031438        -0.111738
 C         1.423343         0.150398        -0.130821
 O         2.175191        -1.106332        -0.041283
 C         2.577524        -0.297822        -1.109538
 C         3.502089         0.840170        -0.450954
 C         3.522897         2.050721        -1.413466
 C         2.573907         3.136525        -0.959677
 O         1.821900         2.610242         0.098511
 C         2.240730         1.157043         0.435022
 H        -0.552764         0.172317         0.851897
 H        -0.494011         0.788381        -0.801857
 H        -0.329771        -0.954819        -0.334499
 H         2.520049        -0.825845        -2.061791
 H         4.419450         0.383753        -0.180874
 H         4.480890         2.590091        -1.490355
 H         3.500187         1.556812        -2.520337
 H         3.164618         3.993933        -0.616751
 H         1.905522         3.607430        -1.730853
 H         2.563590         1.248755         1.491531
