19
Iteration:  4795charge 0 multiplicity 1
 C        -0.150350        -0.177476        -0.215769
 C         1.362650         0.027464        -0.136561
 O         2.277648        -1.004932         0.148519
 C         2.452115        -0.367486        -1.083441
 C         3.286825         0.870240        -0.654394
 C         3.496975         2.107297        -1.546247
 C         2.872998         3.294186        -0.676192
 O         1.862243         2.601641         0.063020
 C         2.220254         1.239389         0.292709
 H        -0.442523        -0.337818         0.906250
 H        -0.513597         0.776128        -0.592217
 H        -0.453083        -1.112312        -0.785647
 H         2.650492        -1.052558        -1.933413
 H         4.162673         0.423171        -0.225285
 H         4.549128         2.315019        -1.725325
 H         3.027002         2.027001        -2.492593
 H         3.790166         3.544591        -0.128309
 H         2.358999         4.257000        -0.965132
 H         2.363065         1.139580         1.419654
