19
Iteration:  4929
 C        -0.070661        -0.034394        -0.158218
 C         1.370049         0.125117        -0.017063
 O         2.156583        -1.166299        -0.116120
 C         2.454937        -0.155697        -1.053386
 C         3.403488         0.823725        -0.569535
 C         3.631366         2.098026        -1.415476
 C         2.591403         3.131916        -1.002937
 O         1.827718         2.562117         0.175836
 C         2.389155         1.224182         0.474203
 H        -0.518486        -0.583067         0.856484
 H        -0.580987         0.952007        -0.129999
 H        -0.302676        -0.606843        -1.027277
 H         2.392586        -0.638992        -2.049441
 H         4.311211         0.445720        -0.091937
 H         4.705527         2.406362        -1.322933
 H         3.587999         2.038341        -2.471298
 H         2.996632         4.140006        -0.953014
 H         1.869537         3.194241        -1.797856
 H         2.780613         1.208107         1.568658
