19
Iteration:   381charge 0 multiplicity 1
 C        -0.009052         0.157297        -0.258823
 C         1.410150         0.122991        -0.070820
 O         2.181793        -1.123289         0.014635
 C         2.400281        -0.168766        -1.137363
 C         3.442586         0.756877        -0.612549
 C         3.656248         2.037773        -1.471448
 C         2.440962         2.933882        -1.060966
 O         1.980543         2.612458         0.329704
 C         2.278926         1.247589         0.565067
 H        -0.717890        -0.202434         0.541992
 H        -0.298826         1.220054        -0.247377
 H        -0.342861        -0.296194        -1.207272
 H         2.184567        -0.495720        -2.229434
 H         4.406297         0.256210        -0.154232
 H         4.676237         2.394514        -1.262573
 H         3.467597         1.778849        -2.544124
 H         2.736329         4.010672        -1.148335
 H         1.534809         2.690858        -1.740105
 H         2.552778         1.209576         1.683252
