19
Iteration:  2478charge 0 multiplicity 1
 C        -0.010437         0.114021        -0.147326
 C         1.458424         0.132705        -0.067305
 O         2.139792        -1.114586        -0.040197
 C         2.593228        -0.266230        -1.074601
 C         3.402337         0.870125        -0.462597
 C         3.636276         2.057306        -1.413126
 C         2.510449         3.011823        -1.035983
 O         1.783337         2.569499         0.084093
 C         2.262215         1.186754         0.506035
 H        -0.487994        -0.086128         0.828522
 H        -0.344796         1.107378        -0.533884
 H        -0.258006        -0.662320        -0.948837
 H         2.497355        -0.777843        -2.100047
 H         4.346574         0.456412        -0.066487
 H         4.584077         2.560375        -1.410618
 H         3.592584         1.786245        -2.512096
 H         2.945154         3.921269        -0.612682
 H         2.020642         3.324169        -1.951059
 H         2.331266         1.255814         1.573591
