19
Iteration:  1679
 C        -0.042205         0.238364        -0.259438
 C         1.451525         0.114127        -0.147922
 O         2.175238        -1.072590         0.064863
 C         2.437551        -0.261270        -1.148509
 C         3.497104         0.810754        -0.515297
 C         3.696806         2.166673        -1.259026
 C         2.316735         2.788395        -1.212338
 O         1.907117         2.573294         0.253954
 C         2.338052         1.213296         0.471919
 H        -0.458370         0.184065         0.714892
 H        -0.576468         1.068755        -0.661913
 H        -0.316094        -0.670618        -0.776142
 H         2.375791        -0.714357        -2.086109
 H         4.464996         0.415684        -0.098339
 H         4.514151         2.724571        -0.773276
 H         3.982298         2.197697        -2.276200
 H         2.405616         3.900138        -1.318997
 H         1.505299         2.369495        -1.839868
 H         2.672108         1.114037         1.495396
