19
Iteration:  4455charge 0 multiplicity 1
 C        -0.128902        -0.028483        -0.395065
 C         1.388189         0.186935        -0.165529
 O         2.128781        -0.994307         0.163737
 C         2.478849        -0.231569        -1.148308
 C         3.437717         0.893938        -0.659070
 C         3.588040         2.187887        -1.448993
 C         2.362779         2.953027        -0.987029
 O         2.110651         2.498603         0.426469
 C         2.397658         1.158788         0.432727
 H        -0.610946        -0.094820         0.531964
 H        -0.574030         0.906325        -0.898085
 H        -0.281223        -0.864508        -1.015722
 H         2.470601        -0.901751        -2.012732
 H         4.387207         0.551935        -0.301677
 H         4.473581         2.808550        -1.080272
 H         3.671889         1.903892        -2.526039
 H         2.615011         4.025339        -1.039599
 H         1.445598         2.692984        -1.557635
 H         2.518769         0.906517         1.554022
