19
Iteration:  4877charge 0 multiplicity 1
 C        -0.111706         0.067361         0.026277
 C         1.376516         0.153158        -0.152066
 O         2.294573        -1.101740        -0.001567
 C         2.512331        -0.317475        -1.207575
 C         3.379528         0.829799        -0.622069
 C         3.685817         2.118007        -1.407555
 C         2.648973         3.110364        -0.764245
 O         1.673319         2.438986        -0.039073
 C         2.290623         1.259988         0.404630
 H        -0.374137         0.050615         1.081937
 H        -0.502642         1.116945        -0.295126
 H        -0.601793        -0.636892        -0.632966
 H         2.443928        -0.777806        -2.258896
 H         4.253698         0.371937        -0.076483
 H         4.719862         2.462001        -1.191182
 H         3.505301         2.028344        -2.555983
 H         3.393883         3.797206        -0.184212
 H         2.057223         3.722164        -1.473506
 H         2.460003         1.251888         1.524762
