19
Iteration:   647charge 0 multiplicity 1
 C        -0.129377         0.172660        -0.230256
 C         1.352771         0.244245        -0.205009
 O         2.065487        -1.038500         0.023484
 C         2.615317        -0.271891        -1.094907
 C         3.498393         0.848476        -0.552600
 C         3.643017         2.122473        -1.475111
 C         2.383252         2.835524        -1.078782
 O         2.015442         2.532709         0.342953
 C         2.343533         1.175739         0.491499
 H        -0.269618         0.308342         0.851803
 H        -0.673150         0.952044        -0.881792
 H        -0.511541        -0.818591        -0.522120
 H         2.575049        -0.972236        -1.922180
 H         4.431207         0.415347        -0.163684
 H         4.577536         2.597237        -1.168235
 H         3.681450         2.196689        -2.591041
 H         2.629782         3.946378        -1.053215
 H         1.578906         2.483843        -1.637279
 H         2.437231         0.905652         1.599703
