19
Iteration:  3492charge 0 multiplicity 1
 C        -0.070709        -0.098745        -0.288588
 C         1.353632         0.153945        -0.088952
 O         2.186172        -1.099075         0.075704
 C         2.485037        -0.230184        -0.955087
 C         3.421736         0.860644        -0.535937
 C         3.495876         2.072109        -1.579815
 C         2.628342         3.154444        -0.978578
 O         1.961101         2.556289         0.198880
 C         2.324253         1.251290         0.466947
 H        -0.723566        -0.221190         0.574607
 H        -0.623333         0.744957        -0.766020
 H        -0.200370        -1.121582        -0.863184
 H         2.247467        -0.655198        -1.961010
 H         4.420517         0.581491        -0.334172
 H         4.493646         2.394781        -1.602430
 H         3.302678         1.650976        -2.587738
 H         3.228952         3.989400        -0.633202
 H         1.825234         3.527801        -1.639891
 H         2.251630         1.278232         1.576691
