19
Iteration:  3068
 C        -0.099352        -0.026539        -0.191260
 C         1.392196         0.082833        -0.123175
 O         2.217543        -1.072341         0.090268
 C         2.453281        -0.279900        -1.099768
 C         3.433023         0.812755        -0.609251
 C         3.563700         2.080406        -1.421198
 C         2.553786         3.143583        -0.985741
 O         1.873878         2.536655         0.157689
 C         2.352046         1.280828         0.432790
 H        -0.589084        -0.160052         0.766614
 H        -0.412306         0.941821        -0.706681
 H        -0.364924        -0.962261        -0.715622
 H         2.309498        -0.586264        -2.140046
 H         4.339059         0.427434        -0.029371
 H         4.606436         2.363999        -1.138535
 H         3.764222         1.827450        -2.493482
 H         3.037130         4.034459        -0.598731
 H         1.894091         3.528846        -1.856759
 H         2.400027         1.470139         1.546893
