19
Iteration:  2161charge 0 multiplicity 1
 C        -0.120344         0.080100        -0.144221
 C         1.466881         0.152714        -0.101706
 O         2.162071        -1.112370        -0.142652
 C         2.525276        -0.179966        -1.134785
 C         3.475358         0.801613        -0.451789
 C         3.737840         2.068812        -1.338798
 C         2.393950         2.857908        -1.180249
 O         1.830673         2.648743         0.205704
 C         2.341661         1.266707         0.612092
 H        -0.457860        -0.447464         0.737069
 H        -0.655006         0.968458        -0.200519
 H        -0.496392        -0.600413        -0.980054
 H         2.362805        -0.381533        -2.180086
 H         4.472776         0.424929        -0.046692
 H         4.714095         2.699502        -1.093339
 H         3.720054         1.593442        -2.307021
 H         2.606101         3.903722        -1.153688
 H         1.689564         2.682949        -1.961761
 H         2.545464         1.447203         1.679333
