19
Iteration:  4205charge 0 multiplicity 1
 C        -0.075511         0.229656        -0.234295
 C         1.404768         0.064393        -0.160426
 O         2.217256        -1.180926        -0.001854
 C         2.576042        -0.282589        -1.043086
 C         3.423139         0.858808        -0.555841
 C         3.503517         2.112847        -1.432721
 C         2.465508         3.098146        -0.977398
 O         1.892214         2.467876         0.191071
 C         2.317664         1.188976         0.479724
 H        -0.505991        -0.196604         0.671416
 H        -0.294825         1.331850        -0.372550
 H        -0.434632        -0.469299        -0.916335
 H         2.760635        -0.507950        -2.139016
 H         4.415164         0.476246        -0.204431
 H         4.336552         2.740129        -1.083839
 H         3.626719         1.986737        -2.493805
 H         2.993071         4.030402        -0.582655
 H         1.663154         3.158526        -1.721914
 H         2.537613         1.050417         1.533243
