19
Iteration:   273charge 0 multiplicity 1
 C        -0.120268         0.233561        -0.203487
 C         1.430476         0.158093        -0.056540
 O         2.083945        -1.156939        -0.065052
 C         2.484648        -0.203474        -1.065921
 C         3.525314         0.734548        -0.571934
 C         3.636522         2.112491        -1.412152
 C         2.372318         2.908497        -1.073137
 O         1.940729         2.564302         0.269407
 C         2.441203         1.229363         0.496254
 H        -0.583027         0.107862         0.798894
 H        -0.410255         1.172342        -0.696184
 H        -0.416263        -0.632337        -0.806836
 H         2.192166        -0.483611        -2.137622
 H         4.440404         0.307859        -0.254468
 H         4.607386         2.530369        -1.064380
 H         3.858048         1.883534        -2.439221
 H         2.614677         3.989474        -1.180170
 H         1.609214         2.755790        -1.826638
 H         2.683093         1.215579         1.614045
