19
Iteration:  3027
 C        -0.091712         0.018210        -0.115077
 C         1.440858         0.095551        -0.155734
 O         2.154942        -1.116991        -0.028047
 C         2.571405        -0.270168        -1.119112
 C         3.486825         0.872272        -0.461549
 C         3.561848         1.989653        -1.437109
 C         2.563518         3.141205        -0.974901
 O         1.827767         2.590895         0.104018
 C         2.271439         1.245806         0.449300
 H        -0.538513         0.270772         0.894790
 H        -0.619730         0.747947        -0.728605
 H        -0.450250        -1.073777        -0.350958
 H         2.465486        -0.779767        -2.097461
 H         4.554000         0.640369        -0.104323
 H         4.519694         2.520828        -1.305355
 H         3.408615         1.750208        -2.408215
 H         3.218910         3.987763        -0.611890
 H         1.854830         3.657333        -1.629758
 H         2.443753         1.028766         1.520377
