19
Iteration:  4569charge 0 multiplicity 1
 C        -0.130964         0.116019        -0.076821
 C         1.351608         0.133593        -0.125035
 O         2.198810        -1.129577        -0.079482
 C         2.463106        -0.214977        -1.166228
 C         3.431495         0.841961        -0.616793
 C         3.775518         2.226658        -1.247527
 C         2.373754         2.855633        -1.174823
 O         1.938418         2.610873         0.251029
 C         2.368556         1.187125         0.457578
 H        -0.442985        -0.360783         0.968385
 H        -0.550039         1.110343        -0.016116
 H        -0.472226        -0.529676        -0.933331
 H         2.406526        -0.559345        -2.246490
 H         4.307905         0.278991        -0.183828
 H         4.286085         2.832485        -0.435438
 H         4.246553         2.084064        -2.237299
 H         2.495931         3.956488        -1.307124
 H         1.542539         2.331858        -1.802796
 H         2.622710         0.851383         1.469759
