19
Iteration:  3794
 C        -0.059187        -0.239979        -0.282203
 C         1.355262         0.125983        -0.077446
 O         2.147998        -0.999827         0.122663
 C         2.455369        -0.269959        -0.990092
 C         3.392171         0.894323        -0.635408
 C         3.453614         2.057554        -1.612864
 C         2.739712         3.159690        -0.877588
 O         1.975218         2.581910         0.126450
 C         2.250779         1.284558         0.513376
 H        -0.586547        -0.676565         0.651156
 H        -0.679148         0.607326        -0.490080
 H        -0.151866        -0.933493        -1.145913
 H         2.507443        -0.551165        -1.995652
 H         4.379310         0.690217        -0.161192
 H         4.494417         2.288641        -1.938891
 H         2.954005         1.797609        -2.508875
 H         3.572466         3.642140        -0.356682
 H         2.267123         3.878233        -1.502855
 H         2.448654         1.247895         1.643319
