19
Iteration:  2991charge 0 multiplicity 1
 C        -0.072484         0.060136        -0.217100
 C         1.419626         0.059527        -0.069531
 O         2.177878        -1.117943         0.087022
 C         2.520616        -0.247465        -1.102119
 C         3.462286         0.948305        -0.561951
 C         3.565695         2.074390        -1.524349
 C         2.565394         3.112831        -0.921169
 O         1.820571         2.521676         0.138487
 C         2.283010         1.170204         0.444239
 H        -0.435575         0.006312         0.817819
 H        -0.380826         1.046453        -0.795111
 H        -0.463307        -0.779776        -0.817038
 H         2.235847        -0.708382        -2.038438
 H         4.458299         0.492548        -0.229999
 H         4.530142         2.522750        -1.275591
 H         3.686854         1.603639        -2.512275
 H         3.216244         3.843482        -0.446684
 H         1.801862         3.471403        -1.748106
 H         2.672822         1.348257         1.492363
