19
Iteration:  3870charge 0 multiplicity 1
 C         0.046626         0.161684        -0.206607
 C         1.492521         0.080036        -0.145867
 O         2.233680        -1.071843         0.134837
 C         2.580395        -0.410212        -1.042070
 C         3.472219         0.809982        -0.596409
 C         3.304522         2.042102        -1.590828
 C         2.742159         3.101879        -0.662095
 O         1.664663         2.543235         0.014665
 C         2.248215         1.284002         0.358636
 H        -0.558017         0.411970         0.739482
 H        -0.226892         0.852772        -0.942805
 H        -0.338643        -0.801903        -0.538374
 H         2.642541        -0.989270        -1.916107
 H         4.523416         0.721028        -0.303629
 H         4.249116         2.433112        -2.143992
 H         2.517143         1.865494        -2.343477
 H         3.634978         3.290976         0.008786
 H         2.414797         3.946364        -1.211890
 H         2.354739         1.334527         1.510175
