19
Iteration:  2179
 C         0.011014         0.163708        -0.115940
 C         1.410720         0.129654        -0.117457
 O         2.113736        -1.154598        -0.053813
 C         2.482502        -0.176055        -1.072418
 C         3.543143         0.873197        -0.516094
 C         3.676662         2.108409        -1.322797
 C         2.401934         2.927350        -1.084933
 O         1.833300         2.496735         0.114741
 C         2.289189         1.216249         0.474201
 H        -0.287118        -0.259630         0.906626
 H        -0.182023         1.300134        -0.393453
 H        -0.426628        -0.449429        -0.926162
 H         2.603768        -0.491974        -2.142245
 H         4.417079         0.356430        -0.086320
 H         4.526935         2.526114        -0.838854
 H         3.956940         2.109969        -2.383703
 H         2.568110         4.068320        -1.092183
 H         1.681166         2.650476        -1.912156
 H         2.433951         1.244426         1.585836
