19
Iteration:  1719
 C        -0.061863         0.206322        -0.308211
 C         1.461628         0.196799        -0.231069
 O         2.046070        -1.126690         0.006028
 C         2.636801        -0.189132        -1.086645
 C         3.565353         0.928956        -0.350134
 C         3.557861         2.047381        -1.452011
 C         2.261656         2.728694        -1.114186
 O         1.997510         2.588435         0.312752
 C         2.389662         1.233482         0.535462
 H        -0.606341         0.098042         0.743393
 H        -0.323139         1.249913        -0.729017
 H        -0.359050        -0.590675        -0.996470
 H         2.599742        -0.637722        -2.133058
 H         4.465249         0.556297         0.106875
 H         4.278942         2.892281        -1.547954
 H         3.440472         1.478817        -2.378217
 H         2.422872         3.807893        -1.315810
 H         1.440001         2.395378        -1.756140
 H         2.449414         0.978585         1.625972
