19
Iteration:  4850
 C        -0.071406        -0.021856        -0.020363
 C         1.423266         0.014089        -0.045049
 O         2.169809        -1.195662        -0.023122
 C         2.504315        -0.209826        -1.155657
 C         3.367561         0.942621        -0.598341
 C         3.604576         2.135081        -1.428810
 C         2.839805         3.224813        -0.716589
 O         1.689991         2.446214        -0.158968
 C         2.265824         1.263931         0.432296
 H        -0.352766         0.109426         1.134076
 H        -0.469555         0.819867        -0.547563
 H        -0.486425        -0.964651        -0.459670
 H         2.376564        -0.546506        -2.161675
 H         4.299443         0.563911        -0.210066
 H         4.672226         2.298054        -1.613541
 H         3.018287         2.027537        -2.296128
 H         3.453266         3.708014        -0.016239
 H         2.328923         3.842547        -1.451958
 H         2.421594         1.383229         1.541241
