19
Iteration:  2975charge 0 multiplicity 1
 C        -0.061797         0.079765        -0.238473
 C         1.424372         0.108023        -0.074234
 O         2.210047        -1.138869         0.094606
 C         2.471404        -0.291130        -1.040440
 C         3.417024         0.779895        -0.587932
 C         3.595637         2.122401        -1.489848
 C         2.557518         3.154354        -0.954195
 O         1.812848         2.501071         0.120352
 C         2.348561         1.260547         0.481551
 H        -0.723374        -0.214983         0.588185
 H        -0.280463         1.040069        -0.509809
 H        -0.377903        -0.638418        -1.014151
 H         2.564539        -0.823802        -2.012055
 H         4.370431         0.465464        -0.238195
 H         4.639606         2.502950        -1.533258
 H         3.238977         2.147190        -2.602697
 H         3.032206         4.050903        -0.517422
 H         1.818228         3.519681        -1.634914
 H         2.549906         1.028758         1.511892
