19
Iteration:    64
 C        -0.193351         0.198370        -0.252522
 C         1.324759         0.176529        -0.090739
 O         2.312468        -1.076053        -0.007589
 C         2.410334        -0.186447        -1.074015
 C         3.491249         0.770238        -0.609157
 C         3.675344         1.963434        -1.452897
 C         2.473498         2.895149        -1.046994
 O         1.955345         2.584566         0.326213
 C         2.320821         1.248468         0.527465
 H        -0.825918        -0.048148         0.633309
 H        -0.427096         1.219403        -0.557162
 H        -0.585864        -0.331793        -1.133402
 H         2.259948        -0.489551        -2.054458
 H         4.381391         0.261148        -0.387108
 H         4.616163         2.430701        -1.296664
 H         3.646422         1.644199        -2.527045
 H         2.740252         3.929144        -1.058725
 H         1.614375         2.808190        -1.761191
 H         2.504586         1.097027         1.669949
