19
Iteration:    92
 C         0.062986         0.114980        -0.269323
 C         1.424676         0.132475         0.013264
 O         1.972617        -1.157041        -0.034094
 C         2.391938        -0.141125        -1.066592
 C         3.410730         0.847722        -0.564126
 C         3.619567         2.089277        -1.386343
 C         2.384573         2.934991        -1.178307
 O         2.055457         2.552545         0.257417
 C         2.450948         1.235911         0.617008
 H        -0.734418         0.007462         0.463897
 H        -0.225182         1.010283        -0.882479
 H        -0.131085        -0.709029        -0.980464
 H         2.140407        -0.255599        -2.197927
 H         4.457531         0.293830        -0.525031
 H         4.570907         2.593326        -1.026483
 H         3.877074         1.699518        -2.393001
 H         2.603889         4.039118        -1.166170
 H         1.554749         2.720953        -1.850512
 H         2.723059         1.144852         1.638953
