19
Iteration:  3609
 C        -0.117988        -0.170689        -0.243889
 C         1.362092         0.033658        -0.093633
 O         2.250342        -1.091571         0.183726
 C         2.497703        -0.319441        -1.027915
 C         3.429826         0.898071        -0.593036
 C         3.435757         2.130694        -1.624655
 C         2.846870         3.228345        -0.788403
 O         1.866334         2.610716         0.014082
 C         2.203014         1.266823         0.448587
 H        -0.610394        -0.470144         0.664889
 H        -0.564998         0.832555        -0.359002
 H        -0.422571        -0.881737        -0.966550
 H         2.164698        -0.753214        -2.014130
 H         4.381126         0.406557        -0.280341
 H         4.456113         2.262371        -2.148222
 H         2.777435         1.880889        -2.442410
 H         3.710525         3.549759        -0.112414
 H         2.427789         4.091555        -1.310830
 H         2.161119         1.412470         1.509663
