19
Iteration:  2475
 C        -0.014742         0.120071        -0.149480
 C         1.460125         0.119694        -0.070016
 O         2.136845        -1.114289        -0.036251
 C         2.583440        -0.258546        -1.071303
 C         3.413218         0.862268        -0.469099
 C         3.637359         2.061137        -1.426476
 C         2.505371         3.026418        -1.035220
 O         1.776582         2.574847         0.087270
 C         2.266756         1.185753         0.510564
 H        -0.477920        -0.026588         0.784815
 H        -0.396831         1.013880        -0.515922
 H        -0.201695        -0.624391        -0.905071
 H         2.551546        -0.720979        -2.050544
 H         4.331248         0.412225        -0.107075
 H         4.612078         2.490266        -1.332534
 H         3.692310         1.748065        -2.531270
 H         2.837671         3.981441        -0.614959
 H         2.052770         3.250961        -1.973350
 H         2.391190         1.148258         1.591418
