19
Iteration:  4217charge 0 multiplicity 1
 C        -0.086432         0.217559        -0.241242
 C         1.442310         0.063096        -0.100367
 O         2.188180        -1.177098        -0.008828
 C         2.505056        -0.197789        -1.068608
 C         3.496805         0.834936        -0.574955
 C         3.654991         2.151167        -1.418690
 C         2.398328         3.027112        -0.952241
 O         1.778268         2.438499         0.191192
 C         2.427923         1.185331         0.459104
 H        -0.565067         0.060161         0.758575
 H        -0.286909         1.263230        -0.438410
 H        -0.548828        -0.229562        -1.055122
 H         2.363890        -0.797963        -2.020832
 H         4.472943         0.563905        -0.116591
 H         4.671377         2.456065        -1.132706
 H         3.651410         2.073188        -2.481588
 H         2.478675         4.135656        -0.736648
 H         1.661560         3.133026        -1.756195
 H         2.801183         1.215133         1.456150
