19
Iteration:  2041charge 0 multiplicity 1
 C         0.032340         0.246682        -0.323423
 C         1.507328         0.158161        -0.133851
 O         2.105909        -1.141549         0.007971
 C         2.571703        -0.217161        -1.010954
 C         3.548805         0.865382        -0.425711
 C         3.454503         2.014627        -1.451791
 C         2.388088         2.955864        -1.115051
 O         1.840094         2.511786         0.248076
 C         2.352628         1.193364         0.569950
 H        -0.504085         0.427362         0.561674
 H        -0.127193         0.907650        -1.096938
 H        -0.384006        -0.741815        -0.674633
 H         2.690305        -0.335711        -2.109440
 H         4.583968         0.458617        -0.155982
 H         4.423425         2.687750        -1.514886
 H         3.290752         1.697265        -2.475403
 H         2.797249         3.944631        -0.968887
 H         1.549083         3.014820        -1.907376
 H         2.509668         0.853175         1.575409
