19
Iteration:  3467
 C        -0.109523        -0.151188        -0.275195
 C         1.393038         0.057204        -0.121900
 O         2.162497        -1.062428         0.125754
 C         2.467138        -0.275137        -1.122062
 C         3.379441         0.819333        -0.578387
 C         3.601481         2.070740        -1.494447
 C         2.585709         3.114564        -0.976947
 O         1.940367         2.689340         0.264009
 C         2.348274         1.307536         0.425335
 H        -0.545663        -0.411362         0.684695
 H        -0.583693         0.865663        -0.345957
 H        -0.471279        -0.820062        -0.996263
 H         2.327367        -0.938121        -2.024979
 H         4.347925         0.548897        -0.070782
 H         4.761113         2.377548        -1.488380
 H         3.442407         1.792163        -2.574885
 H         2.958584         4.154706        -0.861964
 H         1.829125         3.227612        -1.748542
 H         2.535491         1.305864         1.550124
