19
Iteration:  4101
 C        -0.055140         0.108580        -0.390944
 C         1.401063         0.097882        -0.165458
 O         2.159462        -1.056618         0.158158
 C         2.498288        -0.249315        -1.103494
 C         3.481339         0.834319        -0.583867
 C         3.526109         2.121641        -1.393317
 C         2.271751         3.035523        -0.978535
 O         2.116999         2.542020         0.327127
 C         2.357640         1.162347         0.416428
 H        -0.674548         0.300705         0.518298
 H        -0.297876         0.839770        -1.112623
 H        -0.250054        -0.914902        -0.865403
 H         2.393500        -0.817456        -2.094761
 H         4.458285         0.504978        -0.234858
 H         4.478762         2.705857        -1.297009
 H         3.353838         1.887445        -2.481172
 H         2.417506         4.091962        -0.858501
 H         1.599720         2.831115        -1.805304
 H         2.565285         0.918630         1.500459
