19
Iteration:  4142
 C        -0.078879        -0.151269        -0.455909
 C         1.392931         0.093121        -0.139572
 O         2.116065        -1.071891         0.131417
 C         2.467255        -0.262704        -1.064778
 C         3.419241         0.832516        -0.547723
 C         3.511903         2.150449        -1.513150
 C         2.461583         3.150198        -0.951041
 O         2.167067         2.645596         0.373893
 C         2.321551         1.248925         0.435800
 H        -0.696307        -0.299252         0.558690
 H        -0.549789         0.658149        -0.962104
 H        -0.255908        -1.014093        -1.120650
 H         2.409538        -0.756501        -2.109522
 H         4.351253         0.424510        -0.120335
 H         4.569135         2.506572        -1.648710
 H         3.104765         1.720354        -2.421919
 H         2.910348         4.199186        -0.871705
 H         1.435835         3.068982        -1.400364
 H         2.486460         1.031253         1.491037
