19
Iteration:  2421
 C        -0.064982         0.024913        -0.238312
 C         1.445981         0.165695        -0.192760
 O         2.158056        -1.080729         0.043848
 C         2.437783        -0.189249        -1.137330
 C         3.431533         0.814889        -0.579612
 C         3.728466         2.131272        -1.238908
 C         2.360574         2.820998        -1.205607
 O         1.982693         2.646094         0.305851
 C         2.314623         1.290346         0.472751
 H        -0.386041         0.045319         0.802112
 H        -0.484105         0.921318        -0.629046
 H        -0.535475        -0.882048        -0.748548
 H         2.285686        -0.658556        -2.100676
 H         4.220694         0.183280        -0.186476
 H         4.339873         2.670047        -0.555016
 H         4.088758         2.021334        -2.371321
 H         2.392184         3.910090        -1.262081
 H         1.701344         2.418830        -1.976950
 H         2.515074         1.070197         1.503117
