19
Iteration:  2432charge 0 multiplicity 1
 C        -0.062383         0.083983        -0.188865
 C         1.365630         0.136582        -0.106404
 O         2.183423        -1.083412         0.038020
 C         2.447239        -0.208729        -1.128129
 C         3.403876         0.812659        -0.581621
 C         3.739178         2.129585        -1.296259
 C         2.421823         2.973990        -1.166617
 O         1.954718         2.556461         0.243325
 C         2.277179         1.207041         0.463732
 H        -0.568823         0.028189         0.766585
 H        -0.404892         0.894003        -0.767151
 H        -0.203743        -0.847588        -0.831906
 H         2.496973        -0.762151        -2.082974
 H         4.350801         0.473708        -0.171658
 H         4.531675         2.592448        -0.751879
 H         4.300226         2.252534        -2.341011
 H         2.361653         4.016964        -1.469081
 H         1.648996         2.433856        -1.690866
 H         2.398610         1.174628         1.522403
