19
Iteration:  4622charge 0 multiplicity 1
 C        -0.146147        -0.134025        -0.188615
 C         1.379964         0.073322        -0.124427
 O         2.132120        -1.137016        -0.090465
 C         2.485192        -0.195822        -1.114234
 C         3.359872         0.865732        -0.504096
 C         3.633826         2.045895        -1.423041
 C         2.546946         3.117113        -0.988874
 O         1.979752         2.639646         0.231989
 C         2.375719         1.383972         0.496213
 H        -0.388264        -0.254629         0.953280
 H        -0.551056         0.754046        -0.494121
 H        -0.391852        -1.062048        -0.768813
 H         2.471461        -0.584964        -2.198962
 H         4.301904         0.397188        -0.231312
 H         4.799254         2.433091        -1.288921
 H         3.460182         1.548128        -2.438400
 H         2.976158         4.168549        -0.915594
 H         1.683513         3.018265        -1.686683
 H         2.456777         1.118272         1.599506
