19
Iteration:  2457charge 0 multiplicity 1
 C        -0.119853         0.071165        -0.219620
 C         1.405538         0.123715        -0.150166
 O         2.173279        -1.165519         0.052981
 C         2.493812        -0.188435        -1.075529
 C         3.477488         0.826008        -0.523006
 C         3.699430         2.083172        -1.324492
 C         2.483352         3.050747        -1.097813
 O         1.815458         2.485708         0.156272
 C         2.370463         1.281774         0.470721
 H        -0.389435         0.064551         0.902188
 H        -0.436951         1.100508        -0.634403
 H        -0.663779        -0.783705        -0.810659
 H         2.300152        -0.647674        -2.143775
 H         4.418557         0.426910        -0.088949
 H         4.661090         2.672004        -1.154322
 H         3.795072         2.012727        -2.434070
 H         2.845189         4.088925        -1.005364
 H         1.602329         3.031513        -1.859777
 H         2.556788         1.370317         1.551901
