19
Iteration:  2420charge 0 multiplicity 1
 C        -0.066432         0.023958        -0.241343
 C         1.444417         0.163117        -0.199387
 O         2.156841        -1.076331         0.041937
 C         2.433249        -0.196359        -1.141133
 C         3.441653         0.815986        -0.576323
 C         3.726042         2.138411        -1.237254
 C         2.355349         2.806600        -1.203819
 O         1.985155         2.655111         0.299822
 C         2.317635         1.293456         0.479260
 H        -0.387443         0.016217         0.790985
 H        -0.491004         0.911854        -0.625037
 H        -0.533918        -0.850821        -0.708206
 H         2.285880        -0.624556        -2.091902
 H         4.230968         0.187217        -0.178814
 H         4.328756         2.659814        -0.536495
 H         4.063324         1.982597        -2.358969
 H         2.408331         3.899857        -1.234726
 H         1.697612         2.428249        -1.961353
 H         2.540316         1.039632         1.508317
