19
Iteration:  2110charge 0 multiplicity 1
 C        -0.093872         0.006369        -0.217494
 C         1.399912         0.240568        -0.215624
 O         2.131649        -1.047476         0.057149
 C         2.464908        -0.248707        -1.061672
 C         3.438811         0.806315        -0.581479
 C         3.686945         2.147787        -1.322404
 C         2.394756         2.845117        -1.113421
 O         1.970352         2.656116         0.311425
 C         2.398849         1.230507         0.384545
 H        -0.497683        -0.570290         0.655445
 H        -0.661837         0.934629        -0.521295
 H        -0.406326        -0.639278        -1.062885
 H         2.480322        -0.825497        -1.957588
 H         4.361991         0.524087        -0.136194
 H         4.448541         2.612103        -0.743496
 H         4.043885         2.080824        -2.367914
 H         2.342600         3.912317        -1.329415
 H         1.567842         2.315324        -1.727423
 H         2.640795         1.036959         1.458862
