19
Iteration:  3638charge 0 multiplicity 1
 C        -0.019658        -0.278220        -0.076905
 C         1.335197         0.115109        -0.236023
 O         2.114168        -0.995635         0.105038
 C         2.606676        -0.309677        -1.051730
 C         3.348108         0.865872        -0.619607
 C         3.512246         2.047607        -1.551044
 C         2.845581         3.226567        -0.795474
 O         1.846274         2.684618         0.072472
 C         2.174687         1.271715         0.358762
 H        -0.364241        -0.643637         1.022083
 H        -0.733997         0.618637        -0.282371
 H        -0.456366        -1.091920        -0.680089
 H         2.500255        -0.785553        -2.021999
 H         4.301725         0.388196        -0.248553
 H         4.593552         2.049067        -1.696010
 H         3.036937         1.801091        -2.529083
 H         3.651957         3.613654        -0.172190
 H         2.431883         3.988669        -1.463713
 H         2.264559         1.228023         1.519592
