19
Iteration:  2291charge 0 multiplicity 1
 C        -0.039329         0.082098        -0.292501
 C         1.405799         0.163043        -0.169984
 O         2.141125        -1.065328         0.037415
 C         2.578124        -0.218151        -1.110660
 C         3.492286         0.786351        -0.502588
 C         3.562471         2.042173        -1.337075
 C         2.300849         2.907142        -1.070372
 O         2.086138         2.652583         0.291615
 C         2.262306         1.229731         0.475832
 H        -0.639646        -0.269185         0.564901
 H        -0.522853         0.966463        -0.669628
 H        -0.329558        -0.636605        -1.177081
 H         2.533306        -0.558366        -2.117499
 H         4.424642         0.228837        -0.115628
 H         4.409067         2.672515        -1.163443
 H         3.647395         1.955722        -2.365135
 H         2.533476         3.947411        -1.327056
 H         1.445010         2.542289        -1.704054
 H         2.353886         1.295411         1.538082
