19
Iteration:  3317charge 0 multiplicity 1
 C        -0.057064         0.054856        -0.261094
 C         1.417734         0.144802        -0.178521
 O         2.158067        -1.063334         0.106680
 C         2.482941        -0.295102        -1.088433
 C         3.463075         0.855500        -0.593693
 C         3.632611         2.122641        -1.379534
 C         2.375573         2.961722        -1.110004
 O         2.000483         2.602651         0.294256
 C         2.339320         1.227363         0.466627
 H        -0.252237        -0.295890         0.766712
 H        -0.608690         1.009296        -0.532835
 H        -0.485961        -0.702243        -0.983145
 H         2.410920        -0.738139        -2.106678
 H         4.338041         0.431906        -0.191072
 H         4.500080         2.666180        -1.101082
 H         3.619418         1.941617        -2.480634
 H         2.558837         4.036915        -1.100152
 H         1.558090         2.609809        -1.839377
 H         2.214423         0.999909         1.526477
