19
Iteration:  3459charge 0 multiplicity 1
 C        -0.061098        -0.102942        -0.191822
 C         1.375349         0.071675        -0.190793
 O         2.172909        -1.029277         0.102629
 C         2.458860        -0.325706        -1.037108
 C         3.366933         0.846875        -0.569479
 C         3.607484         2.068717        -1.446165
 C         2.564639         3.126027        -1.007013
 O         1.976957         2.640102         0.247997
 C         2.307800         1.311586         0.376424
 H        -0.380333        -0.571348         0.731700
 H        -0.487177         0.886749        -0.457608
 H        -0.366518        -0.686664        -1.143917
 H         2.300206        -0.758031        -2.064153
 H         4.278377         0.403300        -0.280834
 H         4.543397         2.451934        -1.266396
 H         3.588220         1.735567        -2.490416
 H         2.936327         4.145013        -0.916626
 H         1.687851         3.185027        -1.677707
 H         2.298232         0.932980         1.385015
