19
Iteration:  2966
 C        -0.078493         0.087037        -0.280748
 C         1.444112         0.147179        -0.094234
 O         2.226757        -1.176682         0.120983
 C         2.474536        -0.329974        -1.066168
 C         3.437108         0.855226        -0.603024
 C         3.573819         2.068760        -1.470586
 C         2.571310         3.212394        -0.885858
 O         1.817163         2.498129         0.114793
 C         2.312481         1.257087         0.480949
 H        -0.402672        -0.292473         0.684136
 H        -0.488611         1.072614        -0.431985
 H        -0.377685        -0.479944        -1.117755
 H         2.321103        -0.887091        -1.998947
 H         4.359306         0.425247        -0.374451
 H         4.637827         2.316271        -1.530659
 H         3.196348         1.821838        -2.598788
 H         2.924801         4.180290        -0.546291
 H         1.813094         3.219171        -1.667788
 H         2.727552         1.349594         1.481470
