19
Iteration:  3282charge 0 multiplicity 1
 C        -0.105770        -0.154196        -0.368965
 C         1.340234         0.135455        -0.122114
 O         2.199785        -1.054426         0.058805
 C         2.404463        -0.278261        -1.030575
 C         3.386146         0.857411        -0.506079
 C         3.573437         2.065655        -1.464289
 C         2.498936         3.072977        -1.077899
 O         2.083025         2.666138         0.305513
 C         2.334907         1.274186         0.513818
 H        -0.442193        -0.502681         0.670475
 H        -0.806888         0.764694        -0.606415
 H        -0.053364        -1.051766        -0.930685
 H         2.306823        -0.674202        -2.022706
 H         4.450788         0.584767        -0.399231
 H         4.535012         2.439044        -1.328765
 H         3.520544         1.898810        -2.529242
 H         2.939491         4.099957        -1.243552
 H         1.566152         3.111081        -1.755188
 H         2.507557         1.314892         1.629612
