19
Iteration:   567
 C        -0.078158         0.215784        -0.156611
 C         1.438977         0.217118        -0.208190
 O         1.998761        -1.027461         0.064001
 C         2.584825        -0.281985        -1.105412
 C         3.498916         0.840650        -0.595894
 C         3.633147         2.114253        -1.383578
 C         2.347178         2.874342        -1.099892
 O         2.010143         2.491560         0.231666
 C         2.354329         1.136992         0.473453
 H        -0.353663        -0.413327         0.660121
 H        -0.424467         1.127101         0.126782
 H        -0.413831        -0.144061        -1.100666
 H         2.562194        -0.904942        -2.041005
 H         4.506036         0.400729        -0.343674
 H         4.464887         2.565954        -0.818778
 H         3.746293         2.062714        -2.441679
 H         2.533126         3.934755        -1.027205
 H         1.481714         2.912399        -1.730617
 H         2.636237         1.071344         1.529337
