19
Iteration:  3564charge 0 multiplicity 1
 C         0.053119         0.141887        -0.276511
 C         1.464830         0.076792        -0.127622
 O         2.193674        -1.123468         0.211922
 C         2.567089        -0.340830        -1.012003
 C         3.524604         0.793145        -0.657198
 C         3.318914         2.035717        -1.607509
 C         2.720660         3.197639        -0.727797
 O         1.680155         2.502140        -0.000839
 C         2.272516         1.248352         0.469415
 H        -0.558639         0.281549         0.643314
 H        -0.176503         1.141561        -0.699048
 H        -0.422594        -0.619961        -0.730650
 H         2.537591        -0.930575        -1.993657
 H         4.594189         0.715141        -0.265937
 H         4.311252         2.503124        -2.061939
 H         2.740886         1.914664        -2.490781
 H         3.463040         3.677325        -0.000426
 H         2.170436         3.929122        -1.322313
 H         2.524664         0.933128         1.445359
