19
Iteration:  2576charge 0 multiplicity 1
 C        -0.087941        -0.082375        -0.278490
 C         1.396810         0.062495        -0.166734
 O         2.241742        -1.097697         0.224888
 C         2.537863        -0.265966        -0.968272
 C         3.374313         0.902638        -0.618576
 C         3.404486         2.083682        -1.609598
 C         2.909375         3.174754        -0.693938
 O         1.739246         2.583405        -0.054330
 C         2.200681         1.290496         0.410546
 H        -0.452591        -0.265991         0.689939
 H        -0.529992         0.735642        -0.808467
 H        -0.348032        -1.037864        -0.740655
 H         2.694110        -0.660795        -2.020312
 H         4.360809         0.706772        -0.141822
 H         4.431792         2.071613        -1.949582
 H         2.728943         1.673551        -2.471946
 H         3.708944         3.350442         0.130922
 H         2.562328         4.100876        -1.096897
 H         2.545172         1.016641         1.407256
