19
Iteration:   981charge 0 multiplicity 1
 C        -0.053618         0.193977        -0.182319
 C         1.422907         0.101212        -0.236892
 O         2.076270        -1.130213         0.075756
 C         2.560992        -0.401019        -1.055290
 C         3.417425         0.794515        -0.539513
 C         3.666206         2.188725        -1.424967
 C         2.311169         3.024899        -1.048029
 O         2.041799         2.587372         0.237420
 C         2.312175         1.221289         0.437348
 H        -0.380374        -0.540312         0.581552
 H        -0.417576         1.186392        -0.118058
 H        -0.306626        -0.194455        -1.157683
 H         2.644514        -1.010253        -1.943850
 H         4.337885         0.552831         0.013527
 H         4.648763         2.670104        -1.008389
 H         3.828451         2.158012        -2.510056
 H         2.368818         4.027577        -1.352466
 H         1.610727         2.624151        -1.811379
 H         2.362697         1.171979         1.526148
