19
Iteration:  4160charge 0 multiplicity 1
 C        -0.148906        -0.111279        -0.331721
 C         1.384739         0.219257        -0.264907
 O         2.130706        -1.045635         0.042882
 C         2.577350        -0.260964        -1.048725
 C         3.450497         0.888226        -0.516793
 C         3.456705         2.047299        -1.522230
 C         2.500815         3.084931        -0.974932
 O         2.077662         2.605728         0.341482
 C         2.319050         1.193781         0.520079
 H        -0.503216        -0.521345         0.556289
 H        -0.701838         0.820440        -0.723457
 H        -0.220731        -0.943205        -1.000646
 H         2.602881        -0.853858        -1.930197
 H         4.495639         0.751471        -0.181499
 H         4.460710         2.443320        -1.493258
 H         3.211935         1.786494        -2.559711
 H         3.054890         3.905635        -0.526837
 H         1.607064         3.281903        -1.585534
 H         2.412509         1.084197         1.601512
