19
Iteration:  4391
 C        -0.020711         0.113791        -0.230433
 C         1.443026         0.077873        -0.199284
 O         2.118412        -1.079577        -0.021926
 C         2.601002        -0.212579        -1.105310
 C         3.510909         0.906770        -0.494657
 C         3.517999         2.062263        -1.497097
 C         2.500924         3.081367        -0.953290
 O         1.880878         2.493325         0.279261
 C         2.290572         1.165135         0.508997
 H        -0.503145        -0.045505         0.812232
 H        -0.412842         1.104220        -0.598846
 H        -0.469914        -0.672877        -0.814811
 H         2.641275        -0.688582        -2.062556
 H         4.419889         0.373082        -0.285893
 H         4.510064         2.510602        -1.737759
 H         3.116879         1.784169        -2.461942
 H         2.870875         4.034671        -0.560778
 H         1.718955         3.159203        -1.684585
 H         2.230390         0.929825         1.564216
