19
Iteration:  3640
 C        -0.035172        -0.285446        -0.070957
 C         1.357869         0.108099        -0.233548
 O         2.107133        -0.981086         0.102283
 C         2.593443        -0.304338        -1.061624
 C         3.361706         0.850958        -0.603160
 C         3.520301         2.064893        -1.564681
 C         2.834893         3.209778        -0.808987
 O         1.854516         2.679885         0.065708
 C         2.162149         1.276156         0.372253
 H        -0.311716        -0.629966         1.036673
 H        -0.737556         0.595754        -0.302642
 H        -0.471301        -1.054802        -0.628566
 H         2.488450        -0.790627        -2.065407
 H         4.377764         0.443986        -0.231798
 H         4.638633         2.054632        -1.689326
 H         3.051778         1.849879        -2.459183
 H         3.631804         3.600981        -0.128492
 H         2.433633         4.013774        -1.426123
 H         2.196747         1.151675         1.477930
