19
Iteration:  1170charge 0 multiplicity 1
 C        -0.148137         0.087353        -0.292811
 C         1.379075         0.241158        -0.300986
 O         2.223616        -1.052452         0.051627
 C         2.580333        -0.190632        -1.063452
 C         3.511087         0.845684        -0.419212
 C         3.502743         2.013095        -1.411642
 C         2.349195         2.913329        -1.119596
 O         2.093758         2.613576         0.301778
 C         2.268906         1.147117         0.521406
 H        -0.277976        -0.358768         0.672987
 H        -0.639231         1.062384        -0.508346
 H        -0.482697        -0.533653        -1.103006
 H         2.563477        -0.891971        -1.972040
 H         4.511342         0.529410        -0.128949
 H         4.502790         2.511659        -1.242471
 H         3.524804         1.574151        -2.476822
 H         2.665829         3.965628        -1.104891
 H         1.315210         2.876849        -1.764591
 H         2.162450         1.052418         1.645416
