19
Iteration:  1189charge 0 multiplicity 1
 C        -0.069260         0.130969        -0.302692
 C         1.405965         0.080986        -0.242403
 O         2.089843        -1.096666         0.083319
 C         2.655884        -0.305651        -1.059561
 C         3.460935         0.860344        -0.500416
 C         3.566078         2.089012        -1.446181
 C         2.291947         2.911299        -1.079422
 O         2.087215         2.609433         0.338346
 C         2.309680         1.270349         0.446380
 H        -0.613731        -0.341419         0.539382
 H        -0.428632         1.177099        -0.327564
 H        -0.572022        -0.171610        -1.206820
 H         2.790754        -0.793432        -2.024109
 H         4.337368         0.612174         0.121932
 H         4.530814         2.635809        -1.212974
 H         3.591304         1.895080        -2.509913
 H         2.317118         3.961028        -1.148309
 H         1.473597         2.570910        -1.665863
 H         2.525342         1.245942         1.535818
