19
Iteration:  4704charge 0 multiplicity 1
 C         0.024642         0.211552        -0.345410
 C         1.487765         0.083496        -0.109308
 O         2.185207        -1.223597         0.131181
 C         2.613297        -0.387249        -1.008053
 C         3.356490         0.901236        -0.591139
 C         3.327437         2.124688        -1.609552
 C         2.650938         3.102536        -0.778534
 O         1.811762         2.535647         0.180870
 C         2.347717         1.207252         0.435429
 H        -0.512237         0.162716         0.585996
 H        -0.167087         1.362194        -0.781772
 H        -0.520614        -0.483223        -1.049897
 H         2.528314        -0.959116        -1.959175
 H         4.416476         0.779444        -0.257709
 H         4.321355         2.344418        -1.930941
 H         2.816195         1.794895        -2.507910
 H         3.280262         3.856938        -0.338066
 H         1.819142         3.650338        -1.489682
 H         2.599712         1.011884         1.452842
