19
Iteration:  2979charge 0 multiplicity 1
 C        -0.054476         0.064764        -0.214273
 C         1.408144         0.055362        -0.077491
 O         2.195314        -1.106252         0.084058
 C         2.476482        -0.279077        -1.027418
 C         3.420190         0.782014        -0.598053
 C         3.586355         2.152646        -1.501077
 C         2.555337         3.108460        -0.963916
 O         1.811757         2.515080         0.130717
 C         2.371300         1.230256         0.467910
 H        -0.767467        -0.105590         0.597959
 H        -0.296417         1.138558        -0.595104
 H        -0.268334        -0.648632        -0.980711
 H         2.567445        -0.705469        -2.006496
 H         4.370636         0.506852        -0.098525
 H         4.585526         2.579613        -1.446008
 H         3.342367         2.030419        -2.627825
 H         3.085686         3.965336        -0.543582
 H         1.897074         3.737530        -1.700840
 H         2.440337         1.023882         1.569659
