19
Iteration:  4888charge 0 multiplicity 1
 C        -0.080523         0.107771        -0.005377
 C         1.450584         0.052095        -0.163826
 O         2.232137        -1.049392         0.003577
 C         2.470570        -0.270592        -1.144405
 C         3.347308         0.855556        -0.663592
 C         3.654974         2.112725        -1.329592
 C         2.685147         3.153330        -0.834614
 O         1.705246         2.421939         0.005676
 C         2.287476         1.197662         0.384996
 H        -0.333399        -0.265707         0.983672
 H        -0.557500         1.143587        -0.205382
 H        -0.541313        -0.675386        -0.616166
 H         2.559999        -0.781625        -2.161046
 H         4.339329         0.472734        -0.299577
 H         4.724714         2.358691        -1.237717
 H         3.505602         1.936999        -2.476913
 H         2.966979         4.034969        -0.175575
 H         2.161298         3.541394        -1.736721
 H         2.615277         1.211184         1.474642
