19
Iteration:  3871
 C         0.046399         0.174956        -0.211460
 C         1.486127         0.080497        -0.137262
 O         2.240545        -1.071034         0.134089
 C         2.571424        -0.414786        -1.048074
 C         3.471279         0.800615        -0.588527
 C         3.300928         2.050135        -1.583094
 C         2.738597         3.106095        -0.671785
 O         1.667948         2.539977         0.012900
 C         2.254620         1.281738         0.360646
 H        -0.529686         0.389645         0.742560
 H        -0.233799         0.854166        -0.947345
 H        -0.300893        -0.868423        -0.524933
 H         2.669148        -0.986266        -1.958171
 H         4.531882         0.690440        -0.313618
 H         4.239792         2.384358        -2.124509
 H         2.537133         1.890966        -2.328603
 H         3.602085         3.305655        -0.000981
 H         2.414942         3.985917        -1.223431
 H         2.327400         1.340959         1.509327
