19
Iteration:   554
 C         0.015834         0.225269        -0.130974
 C         1.409402         0.194312        -0.299008
 O         1.984382        -1.113850         0.012470
 C         2.560053        -0.279781        -1.052394
 C         3.537254         0.734300        -0.616117
 C         3.643557         2.095180        -1.385532
 C         2.303112         2.918490        -1.090482
 O         1.955205         2.567179         0.282200
 C         2.372813         1.245283         0.479116
 H        -0.101783        -0.403145         0.773016
 H        -0.212155         1.264284         0.075057
 H        -0.762475        -0.148368        -0.792415
 H         2.597978        -0.776741        -2.050100
 H         4.543895         0.426317        -0.154863
 H         4.405056         2.745311        -0.925847
 H         4.102453         2.025779        -2.413672
 H         2.575853         3.966626        -1.095238
 H         1.556519         2.549461        -1.887163
 H         2.385019         0.944634         1.529245
