19
Iteration:  1256
 C        -0.034623         0.266354        -0.220060
 C         1.481512         0.135398        -0.146089
 O         2.196371        -1.176584        -0.078384
 C         2.541047        -0.219303        -1.069554
 C         3.538362         0.826010        -0.464341
 C         3.668794         2.085233        -1.369301
 C         2.270737         2.803335        -1.145382
 O         1.911722         2.545486         0.219453
 C         2.274460         1.322702         0.591563
 H        -0.567703         0.077409         0.761682
 H        -0.284320         1.402440        -0.321148
 H        -0.619965        -0.293088        -0.972457
 H         2.199967        -0.476656        -2.156436
 H         4.473500         0.427673        -0.035221
 H         4.591054         2.696600        -1.134652
 H         3.822241         1.981387        -2.503594
 H         2.035822         3.805730        -1.322264
 H         1.643079         2.260441        -1.764171
 H         2.334196         1.019524         1.700579
