19
Iteration:  2764
 C        -0.083135        -0.057030        -0.203263
 C         1.350449         0.086507        -0.138156
 O         2.253576        -1.105504         0.129976
 C         2.412879        -0.250841        -1.004611
 C         3.403574         0.847287        -0.570489
 C         3.558105         2.113132        -1.489155
 C         2.734717         3.178679        -0.835196
 O         1.756467         2.561552        -0.002611
 C         2.342542         1.263367         0.382302
 H        -0.457654        -0.602925         0.624383
 H        -0.597159         0.863170        -0.491159
 H        -0.224632        -0.800064        -0.944645
 H         2.304530        -0.641220        -1.976466
 H         4.286999         0.441615         0.029907
 H         4.679850         2.390483        -1.555333
 H         3.226080         1.707674        -2.526538
 H         3.428440         3.728391        -0.234610
 H         2.226287         3.796449        -1.483086
 H         2.563640         1.094891         1.449239
