19
Iteration:  2959charge 0 multiplicity 1
 C        -0.045853         0.105027        -0.274464
 C         1.438283         0.077391        -0.151355
 O         2.215106        -1.140983         0.125317
 C         2.474195        -0.339526        -1.033682
 C         3.435330         0.881953        -0.628457
 C         3.526830         2.064001        -1.485708
 C         2.570188         3.142343        -0.866519
 O         1.807810         2.543410         0.131473
 C         2.362059         1.224674         0.453599
 H        -0.379182        -0.402726         0.672226
 H        -0.667934         1.132142        -0.240157
 H        -0.265738        -0.498007        -1.190626
 H         2.164914        -0.679026        -2.019752
 H         4.435333         0.522389        -0.127809
 H         4.568473         2.362009        -1.503116
 H         3.354760         1.555143        -2.360871
 H         2.947412         4.160840        -0.597356
 H         2.003246         3.602222        -1.843446
 H         2.571463         1.375366         1.573650
