19
Iteration:   187charge 0 multiplicity 1
 C         0.008247         0.097168        -0.216259
 C         1.461023         0.152916         0.057151
 O         1.955940        -1.235331        -0.076738
 C         2.404773        -0.190580        -1.077764
 C         3.486618         0.781709        -0.570982
 C         3.714853         2.095283        -1.428828
 C         2.424738         2.919537        -1.112292
 O         1.922608         2.617300         0.210785
 C         2.450088         1.326461         0.570816
 H        -0.661295        -0.315679         0.564478
 H        -0.460686         1.083679        -0.410003
 H        -0.222338        -0.477711        -1.122186
 H         2.182159        -0.423978        -2.230154
 H         4.398385         0.351356        -0.339148
 H         4.565136         2.680964        -0.962601
 H         3.879481         1.942603        -2.466242
 H         2.755537         4.003331        -1.000523
 H         1.593234         2.807968        -1.843156
 H         2.738921         1.485211         1.636999
