19
Iteration:   936
 C        -0.010685         0.161617        -0.321051
 C         1.416660         0.225621        -0.073679
 O         2.124047        -1.024496        -0.018384
 C         2.491915        -0.172874        -1.006817
 C         3.526441         0.811814        -0.548280
 C         3.583776         1.989345        -1.502178
 C         2.363380         2.861693        -1.035256
 O         1.979700         2.498433         0.289770
 C         2.314207         1.240525         0.593518
 H        -0.643249         0.081168         0.594898
 H        -0.241211         0.987577        -0.967440
 H        -0.343557        -0.735454        -0.900831
 H         2.621476        -0.508291        -2.136108
 H         4.498337         0.436780        -0.116642
 H         4.610992         2.534180        -1.690589
 H         3.445580         1.589406        -2.548591
 H         2.411270         3.970996        -1.018135
 H         1.560222         2.977503        -1.849220
 H         2.427581         1.115643         1.657414
