19
Iteration:  3667
 C        -0.159085        -0.131870        -0.048652
 C         1.328571         0.160555        -0.171013
 O         2.295535        -1.117522         0.063208
 C         2.482233        -0.268143        -1.009140
 C         3.365845         0.891956        -0.595239
 C         3.588389         2.087280        -1.493565
 C         2.818574         3.211520        -0.780186
 O         1.773583         2.569042        -0.048163
 C         2.267660         1.257690         0.359698
 H        -0.472632        -0.284907         0.906170
 H        -0.763931         0.593263        -0.534163
 H        -0.494643        -1.061752        -0.611360
 H         2.419673        -0.679032        -1.994072
 H         4.209558         0.376677        -0.198796
 H         4.625433         2.109375        -1.759859
 H         2.915950         1.799504        -2.394426
 H         3.473497         3.770550        -0.077246
 H         2.393604         3.951626        -1.505767
 H         2.513221         1.142737         1.408575
