19
Iteration:  3281
 C        -0.095541        -0.150425        -0.367130
 C         1.334729         0.143962        -0.130334
 O         2.203782        -1.066509         0.065309
 C         2.406388        -0.271826        -1.037210
 C         3.385471         0.847938        -0.498687
 C         3.560881         2.067990        -1.463386
 C         2.503877         3.074544        -1.076663
 O         2.081874         2.675788         0.302584
 C         2.326965         1.270034         0.510734
 H        -0.439151        -0.502221         0.674195
 H        -0.809266         0.727969        -0.611234
 H        -0.055041        -1.051570        -0.924751
 H         2.266496        -0.675088        -2.024204
 H         4.483759         0.575324        -0.400424
 H         4.553967         2.432248        -1.341075
 H         3.541199         1.886192        -2.511502
 H         2.927461         4.111757        -1.251747
 H         1.577494         3.119404        -1.730533
 H         2.546048         1.292068         1.627169
