19
Iteration:  2384charge 0 multiplicity 1
 C        -0.051096         0.109147        -0.244205
 C         1.365174         0.139524        -0.209965
 O         2.088340        -1.117744        -0.066346
 C         2.548341        -0.122795        -1.047430
 C         3.499785         0.875082        -0.424438
 C         3.679446         2.106942        -1.385518
 C         2.326983         2.753155        -1.213342
 O         1.965469         2.579308         0.273501
 C         2.323101         1.276102         0.599666
 H        -0.282243        -0.137300         0.799048
 H        -0.506228         1.110728        -0.422074
 H        -0.456213        -0.565723        -0.884225
 H         2.635529        -0.265544        -2.123647
 H         4.469983         0.578701         0.014183
 H         4.638782         2.695940        -1.270911
 H         3.985343         1.683755        -2.347218
 H         2.446617         3.845451        -1.180529
 H         1.471025         2.518503        -1.796471
 H         2.665534         0.950010         1.631399
