19
Iteration:  1802charge 0 multiplicity 1
 C        -0.054498         0.046392        -0.317653
 C         1.433310         0.177123        -0.265499
 O         2.091340        -1.004674         0.089108
 C         2.580377        -0.283514        -1.017878
 C         3.500515         0.823014        -0.512899
 C         3.580462         2.046293        -1.376484
 C         2.387558         2.981267        -1.047325
 O         1.983901         2.574188         0.263849
 C         2.332321         1.255248         0.429284
 H        -0.292633        -0.198027         0.729972
 H        -0.595476         0.943770        -0.621754
 H        -0.539930        -0.843731        -0.873996
 H         2.473944        -0.721999        -2.072708
 H         4.352112         0.284741        -0.022360
 H         4.486519         2.605086        -1.179750
 H         3.563396         1.715810        -2.507851
 H         2.483387         4.053062        -0.926131
 H         1.433858         2.870254        -1.715724
 H         2.548760         1.080398         1.478752
