19
Iteration:   797
 C        -0.038627         0.085501        -0.184931
 C         1.336446         0.192420        -0.185905
 O         2.154271        -1.065064         0.096673
 C         2.342753        -0.175742        -1.124877
 C         3.499802         0.802924        -0.616916
 C         3.714569         2.080231        -1.316509
 C         2.467592         2.901738        -1.113228
 O         1.916745         2.544908         0.197007
 C         2.362584         1.251624         0.519339
 H        -0.423913        -0.705023         0.521118
 H        -0.404884         1.046426         0.195282
 H        -0.438050        -0.194358        -1.180659
 H         2.271901        -0.668795        -2.159082
 H         4.482098         0.316874        -0.323028
 H         4.639241         2.624128        -0.944242
 H         3.964784         1.837508        -2.331121
 H         2.415409         4.018420        -1.224286
 H         1.769542         2.643990        -1.965432
 H         2.597702         1.186866         1.622889
