19
Iteration:   884charge 0 multiplicity 1
 C        -0.159925         0.238753        -0.270948
 C         1.424849         0.089360        -0.233442
 O         2.177058        -1.073101         0.115840
 C         2.522058        -0.295327        -1.089684
 C         3.481248         0.780065        -0.598722
 C         3.622668         2.156958        -1.382762
 C         2.302465         2.856526        -1.070468
 O         2.093604         2.605459         0.306753
 C         2.267615         1.181540         0.471364
 H        -0.328414         0.507425         0.901855
 H        -0.567557         0.944372        -1.066077
 H        -0.639791        -0.750999        -0.594793
 H         2.538359        -0.764266        -2.114160
 H         4.543966         0.442269        -0.380894
 H         4.357318         2.906817        -0.848135
 H         4.064397         2.128585        -2.399523
 H         2.415089         3.959388        -1.277765
 H         1.552281         2.468111        -1.812377
 H         2.439993         0.989642         1.563924
