19
Iteration:   809
 C        -0.130479         0.117204        -0.206518
 C         1.483511         0.115666        -0.000951
 O         2.180748        -1.122362         0.000093
 C         2.442365        -0.164132        -1.090320
 C         3.405778         0.806539        -0.575326
 C         3.755747         2.080879        -1.422691
 C         2.447237         2.924624        -1.144077
 O         1.935494         2.600113         0.185658
 C         2.270446         1.233882         0.560772
 H        -0.527973        -0.573024         0.527816
 H        -0.589009         1.103969        -0.062586
 H        -0.429298        -0.164073        -1.212543
 H         2.099235        -0.525202        -2.085071
 H         4.317607         0.236312        -0.228823
 H         4.621103         2.557409        -0.923479
 H         3.879395         1.998070        -2.483152
 H         2.787068         3.997270        -1.097208
 H         1.670493         2.613640        -1.911641
 H         2.452611         1.181275         1.686412
