19
Iteration:  2312
 C        -0.047312         0.174169        -0.366862
 C         1.411360         0.159940        -0.206216
 O         2.146974        -1.079925         0.106263
 C         2.523409        -0.348646        -1.014593
 C         3.464698         0.888026        -0.587541
 C         3.628563         2.163683        -1.393543
 C         2.304424         2.926047        -1.078558
 O         1.945239         2.565090         0.289051
 C         2.417929         1.160743         0.499332
 H        -0.441196        -0.231955         0.591137
 H        -0.455581         1.180523        -0.383577
 H        -0.589904        -0.358037        -1.248021
 H         2.495320        -0.993474        -1.843211
 H         4.279502         0.262921        -0.256254
 H         4.444838         2.702197        -1.000422
 H         3.984951         2.019821        -2.373874
 H         2.495502         4.023595        -1.126905
 H         1.469037         2.659247        -1.807184
 H         2.640958         0.932299         1.535423
