19
Iteration:  2311
 C        -0.054796         0.168406        -0.369523
 C         1.418059         0.161198        -0.210282
 O         2.149217        -1.080123         0.105394
 C         2.519316        -0.347903        -1.018749
 C         3.463342         0.886402        -0.583916
 C         3.618772         2.159300        -1.393307
 C         2.306609         2.920527        -1.080496
 O         1.948773         2.569372         0.290347
 C         2.419860         1.171008         0.502578
 H        -0.428574        -0.225810         0.599208
 H        -0.468661         1.188831        -0.377360
 H        -0.577057        -0.368419        -1.239013
 H         2.487168        -0.978350        -1.851617
 H         4.304504         0.290375        -0.235904
 H         4.448517         2.681663        -0.966583
 H         4.014483         2.000043        -2.397502
 H         2.497793         4.038339        -1.114445
 H         1.463507         2.667250        -1.804341
 H         2.631976         0.898262         1.535993
