19
Iteration:  2140charge 0 multiplicity 1
 C        -0.072243        -0.053852        -0.161468
 C         1.395811         0.167972        -0.132430
 O         2.159941        -1.084203        -0.102349
 C         2.449233        -0.038461        -1.052543
 C         3.434719         0.826855        -0.422831
 C         3.671000         2.070401        -1.359782
 C         2.396302         2.861289        -1.172584
 O         2.073211         2.584183         0.185744
 C         2.271997         1.302857         0.532509
 H        -0.567451        -0.534483         0.609982
 H        -0.496454         0.871094        -0.195282
 H        -0.394571        -0.559516        -1.108779
 H         2.463753        -0.434138        -2.029651
 H         4.383871         0.413730         0.006776
 H         4.446083         2.781985        -0.870174
 H         3.839321         1.778089        -2.395310
 H         2.418977         3.912348        -1.318815
 H         1.583523         2.465231        -1.785572
 H         2.271140         1.111573         1.610735
