19
Iteration:  2269charge 0 multiplicity 1
 C        -0.095457         0.004772        -0.305661
 C         1.365179         0.209621        -0.187782
 O         2.121598        -1.123873        -0.051436
 C         2.516081        -0.138160        -1.118753
 C         3.434195         0.903538        -0.388447
 C         3.651531         2.022909        -1.466809
 C         2.394300         2.827506        -1.132978
 O         2.047656         2.619997         0.358443
 C         2.350118         1.296505         0.603543
 H        -0.553719        -0.151036         0.696416
 H        -0.690896         0.771045        -0.807293
 H        -0.440755        -0.937970        -0.930222
 H         2.501773        -0.349461        -2.162870
 H         4.480333         0.816705         0.026326
 H         4.547737         2.578535        -1.329571
 H         3.759517         1.714686        -2.469182
 H         2.405141         3.924478        -1.238898
 H         1.590183         2.383382        -1.761894
 H         2.539411         1.240285         1.665585
