19
Iteration:   760
 C        -0.169245         0.105916        -0.101545
 C         1.425071         0.101278        -0.257516
 O         2.094341        -1.158214        -0.023482
 C         2.514122        -0.249429        -1.066122
 C         3.468444         0.824523        -0.510618
 C         3.710796         2.157007        -1.327402
 C         2.388453         2.885547        -1.201662
 O         2.070561         2.661362         0.250936
 C         2.277928         1.253801         0.467922
 H        -0.446272        -0.571603         0.801393
 H        -0.303015         1.190876         0.231581
 H        -0.853575        -0.059800        -1.004777
 H         2.633844        -0.694136        -1.997780
 H         4.423540         0.411311        -0.282999
 H         4.526094         2.683417        -0.798025
 H         3.963189         1.969640        -2.436920
 H         2.519125         3.945688        -1.354449
 H         1.518741         2.507717        -1.713480
 H         2.230637         1.068605         1.507294
