19
Iteration:  1879charge 0 multiplicity 1
 C        -0.022462         0.187428        -0.137286
 C         1.477133         0.181690        -0.187717
 O         2.142854        -1.079577         0.061028
 C         2.448850        -0.169411        -1.164262
 C         3.471117         0.789082        -0.573675
 C         3.797837         2.121332        -1.184452
 C         2.356907         2.860216        -1.142504
 O         1.804624         2.499869         0.125287
 C         2.380977         1.215822         0.451149
 H        -0.368326        -0.188556         0.862309
 H        -0.485283         1.150106        -0.405118
 H        -0.463234        -0.723953        -0.856212
 H         2.327659        -0.383545        -2.313224
 H         4.293496         0.201531        -0.097923
 H         4.385314         2.590265        -0.439995
 H         4.066330         2.399250        -2.241135
 H         2.151327         3.916521        -1.149677
 H         1.692932         2.399522        -1.974868
 H         2.550595         1.124607         1.527248
