19
Iteration:  3158
 C        -0.065795         0.235438        -0.189310
 C         1.449867         0.200833        -0.160164
 O         2.099900        -1.108267        -0.048185
 C         2.549147        -0.054509        -1.118428
 C         3.553244         0.888803        -0.474310
 C         3.654687         2.099977        -1.350684
 C         2.233710         2.653705        -1.168928
 O         1.955994         2.524819         0.248714
 C         2.379101         1.229841         0.565629
 H        -0.370174        -0.190473         0.777984
 H        -0.532893         1.157494        -0.386749
 H        -0.422653        -0.516015        -0.989157
 H         2.487674        -0.542531        -2.107289
 H         4.517336         0.311529        -0.257103
 H         4.339404         2.920686        -1.057158
 H         4.013202         1.754385        -2.244020
 H         2.030952         3.721023        -1.367038
 H         1.603568         1.979283        -1.823673
 H         2.627138         1.140303         1.632905
