19
Iteration:  3132charge 0 multiplicity 1
 C        -0.041062         0.120192        -0.102504
 C         1.459193         0.198976        -0.177085
 O         2.146378        -1.089112        -0.075290
 C         2.607552        -0.258388        -1.141007
 C         3.462738         0.804537        -0.453468
 C         3.584723         2.072271        -1.324113
 C         2.329922         2.838308        -1.191080
 O         1.962008         2.636641         0.268642
 C         2.267517         1.280769         0.500305
 H        -0.412582        -0.447031         0.720838
 H        -0.536272         1.121367        -0.185836
 H        -0.351377        -0.300791        -1.009019
 H         2.519141        -0.611273        -2.167634
 H         4.417487         0.362278        -0.250510
 H         4.368727         2.769981        -1.010491
 H         3.976871         1.695407        -2.369600
 H         2.380809         3.903747        -1.263786
 H         1.572440         2.391228        -1.820684
 H         2.518594         1.124234         1.563078
