19
Iteration:   924
 C        -0.036663         0.141764        -0.371860
 C         1.444718         0.194098        -0.062038
 O         2.080120        -1.090035         0.046687
 C         2.475927        -0.143293        -1.050183
 C         3.573625         0.804817        -0.592377
 C         3.568774         2.026551        -1.489777
 C         2.348192         2.890760        -1.091317
 O         1.969022         2.559335         0.302538
 C         2.386740         1.212649         0.628911
 H        -0.692768         0.351624         0.439075
 H        -0.307617         0.874961        -1.102557
 H        -0.112427        -0.887155        -0.771868
 H         2.136528        -0.489090        -2.126311
 H         4.595828         0.455051        -0.281608
 H         4.446129         2.642941        -1.154165
 H         3.543134         1.822305        -2.582702
 H         2.799799         3.875891        -1.029715
 H         1.425337         2.600663        -1.696610
 H         2.479168         1.161466         1.703129
