19
Iteration:  3193
 C         0.032152         0.306220        -0.259967
 C         1.525668         0.081991        -0.102267
 O         2.178160        -1.220672         0.021078
 C         2.447883        -0.178281        -1.080628
 C         3.464231         0.826669        -0.525759
 C         3.638206         2.143154        -1.315238
 C         2.246586         2.812011        -1.164953
 O         1.888513         2.534764         0.207254
 C         2.382468         1.285857         0.517588
 H        -0.498498         0.280782         0.756809
 H        -0.228713         1.294905        -0.743990
 H        -0.342965        -0.566970        -0.853582
 H         2.364835        -0.495300        -2.123561
 H         4.527235         0.422996        -0.459806
 H         4.381145         2.710926        -0.764475
 H         3.874380         1.870424        -2.311054
 H         2.292571         3.957368        -1.253942
 H         1.278665         2.481655        -1.674831
 H         2.673576         1.124848         1.583238
