19
Iteration:  3717charge 0 multiplicity 1
 C        -0.092846         0.186825        -0.117377
 C         1.465400         0.075291        -0.017910
 O         2.224868        -1.093761         0.062482
 C         2.525711        -0.332074        -1.044348
 C         3.508715         0.822819        -0.644744
 C         3.471068         2.131937        -1.531031
 C         2.674401         3.186626        -0.689214
 O         1.692041         2.329816        -0.160113
 C         2.330584         1.256871         0.442489
 H        -0.662533         0.176082         0.941308
 H        -0.466713         1.039920        -0.748242
 H        -0.574408        -0.642386        -0.651006
 H         2.326909        -0.779603        -2.066110
 H         4.493031         0.365286        -0.235565
 H         4.560874         2.452412        -1.469554
 H         3.157834         1.971212        -2.513448
 H         3.303668         3.777098        -0.016399
 H         2.194443         3.893954        -1.358316
 H         2.628554         1.462542         1.524797
