19
Iteration:  2996
 C        -0.075886         0.065377        -0.229254
 C         1.451653         0.096029        -0.102482
 O         2.188582        -1.146224         0.079100
 C         2.513096        -0.233534        -1.112922
 C         3.448732         0.940848        -0.540832
 C         3.597905         2.015127        -1.492762
 C         2.561884         3.123386        -0.925217
 O         1.813903         2.505703         0.129189
 C         2.268552         1.235131         0.465720
 H        -0.428097         0.048580         0.827448
 H        -0.419428         0.929357        -0.677363
 H        -0.573983        -0.877187        -0.632575
 H         2.237998        -0.742441        -2.064262
 H         4.426783         0.580061        -0.286479
 H         4.621839         2.450706        -1.408200
 H         3.524648         1.779149        -2.590456
 H         3.119761         4.031028        -0.513544
 H         1.824627         3.413700        -1.578141
 H         2.664457         1.168373         1.474288
