19
Iteration:   995charge 0 multiplicity 1
 C        -0.105126         0.113404        -0.256975
 C         1.420947         0.157812        -0.176215
 O         2.087484        -1.066445         0.166831
 C         2.482989        -0.290534        -1.112523
 C         3.519417         0.872395        -0.600162
 C         3.675565         2.196038        -1.347007
 C         2.394671         2.870347        -1.137862
 O         1.965561         2.554132         0.263517
 C         2.360431         1.190854         0.410252
 H        -0.541062        -0.525089         0.606038
 H        -0.488282         1.161903         0.074047
 H        -0.561353        -0.123559        -1.234036
 H         2.387497        -0.775068        -2.043018
 H         4.470840         0.460877        -0.264403
 H         4.544182         2.786920        -0.948195
 H         3.845759         1.946678        -2.425388
 H         2.417567         3.951059        -1.003947
 H         1.656015         2.549090        -1.821457
 H         2.667970         0.886914         1.455426
