19
Iteration:  4670
 C        -0.078437         0.110023        -0.293453
 C         1.478459         0.112999        -0.178515
 O         2.177379        -1.050839         0.148069
 C         2.546458        -0.294489        -1.131548
 C         3.469701         0.804456        -0.628624
 C         3.419954         2.094947        -1.503200
 C         2.533311         3.052575        -0.814901
 O         1.849328         2.540272         0.236267
 C         2.351397         1.188400         0.426777
 H        -0.446694         0.161957         0.719621
 H        -0.220930         1.186882        -0.857598
 H        -0.349053        -0.773203        -0.849450
 H         2.474117        -0.979492        -1.917855
 H         4.471476         0.467490        -0.238719
 H         4.466009         2.388583        -1.597057
 H         3.029559         1.837968        -2.506784
 H         3.169591         3.866042        -0.503977
 H         1.858641         3.527649        -1.692576
 H         2.698745         1.101522         1.413610
