19
Iteration:  2936
 C        -0.067529         0.020471        -0.225531
 C         1.422372         0.101189        -0.134900
 O         2.164739        -1.098080         0.068973
 C         2.589859        -0.253099        -1.060137
 C         3.452532         0.874631        -0.560265
 C         3.505293         2.016206        -1.601016
 C         2.644920         3.149626        -0.871817
 O         1.830193         2.493265         0.145780
 C         2.210232         1.267683         0.518034
 H        -0.507522        -0.444492         0.683667
 H        -0.456444         1.151217        -0.053192
 H        -0.352488        -0.244673        -1.234003
 H         2.879162        -0.918861        -1.840138
 H         4.454019         0.429495        -0.247621
 H         4.549688         2.225970        -1.676872
 H         3.151053         1.679518        -2.527843
 H         3.073631         4.115532        -0.570127
 H         1.876568         3.598589        -1.692264
 H         2.549246         1.404616         1.581259
