19
Iteration:  2769charge 0 multiplicity 1
 C        -0.064286        -0.088109        -0.228932
 C         1.392767         0.115593        -0.097518
 O         2.222156        -1.077932         0.114701
 C         2.433804        -0.276628        -1.048999
 C         3.403058         0.842441        -0.596046
 C         3.544621         2.107559        -1.490057
 C         2.791427         3.163817        -0.837693
 O         1.730680         2.554198         0.023987
 C         2.274781         1.298648         0.424623
 H        -0.405362        -0.494328         0.814905
 H        -0.603269         0.840095        -0.468502
 H        -0.263810        -0.974676        -0.944954
 H         2.414458        -0.826970        -2.069360
 H         4.337524         0.544643        -0.198589
 H         4.620270         2.173860        -1.545692
 H         3.237075         1.709862        -2.411616
 H         3.464036         3.812764        -0.138737
 H         2.255377         3.884877        -1.607632
 H         2.608452         1.199252         1.473462
