19
Iteration:  2666charge 0 multiplicity 1
 C        -0.053791        -0.033203        -0.230001
 C         1.421090         0.154057        -0.071860
 O         2.213565        -1.103076         0.079970
 C         2.518587        -0.327155        -1.038480
 C         3.404189         0.821379        -0.567849
 C         3.562175         2.097797        -1.516327
 C         2.711163         3.165258        -0.859288
 O         1.718656         2.566477        -0.002672
 C         2.246996         1.226291         0.546794
 H        -0.552634        -0.096959         0.735600
 H        -0.363936         0.934487        -0.744062
 H        -0.350452        -0.824042        -0.864640
 H         2.488940        -0.776494        -1.987748
 H         4.415426         0.363521        -0.351082
 H         4.684240         2.462438        -1.687996
 H         3.175179         1.831507        -2.579194
 H         3.269669         3.967894        -0.195209
 H         2.259942         3.651803        -1.701278
 H         2.557637         1.261275         1.613563
