19
Iteration:  1983charge 0 multiplicity 1
 C        -0.094924         0.033932        -0.402655
 C         1.371280         0.110482        -0.162439
 O         2.160301        -1.053206         0.137786
 C         2.531497        -0.330899        -1.075181
 C         3.419199         0.844184        -0.578117
 C         3.628343         2.075492        -1.430958
 C         2.337566         2.909106        -1.056130
 O         2.072923         2.686025         0.325579
 C         2.353845         1.260430         0.482757
 H        -0.715258        -0.054785         0.512464
 H        -0.552267         0.993538        -0.714450
 H        -0.360747        -0.653838        -1.114646
 H         2.564506        -0.743880        -2.110308
 H         4.426638         0.558421        -0.214162
 H         4.438026         2.701576        -0.811398
 H         4.028409         2.197771        -2.504134
 H         2.221750         4.053349        -1.127618
 H         1.393912         2.454261        -1.562868
 H         2.502189         0.983224         1.544683
