19
Iteration:  4228charge 0 multiplicity 1
 C        -0.010381         0.228035        -0.209809
 C         1.483612         0.101322        -0.047708
 O         2.144664        -1.131882        -0.004665
 C         2.451700        -0.276196        -1.177481
 C         3.518815         0.875200        -0.624065
 C         3.726824         2.196472        -1.338615
 C         2.347470         2.992737        -1.005461
 O         1.760379         2.424216         0.188566
 C         2.394907         1.195702         0.543654
 H        -0.691932        -0.046678         0.644555
 H        -0.126061         1.277887        -0.425884
 H        -0.330500        -0.431881        -0.944825
 H         2.234903        -0.564408        -2.270642
 H         4.403256         0.265714        -0.342659
 H         4.648733         2.797715        -1.222128
 H         3.640445         1.880455        -2.343834
 H         2.771904         4.009251        -0.824935
 H         1.715319         2.760895        -1.849746
 H         2.527498         1.053232         1.585312
