19
Iteration:  2321
 C        -0.039268         0.229500        -0.308601
 C         1.410338         0.112352        -0.148177
 O         2.116499        -1.092799         0.149826
 C         2.551376        -0.314558        -1.054963
 C         3.494128         0.798789        -0.613987
 C         3.694612         2.217194        -1.366779
 C         2.308647         2.942793        -1.056282
 O         1.928812         2.501935         0.260783
 C         2.329163         1.148980         0.436611
 H        -0.670727        -0.272770         0.444458
 H        -0.238114         1.325879        -0.414772
 H        -0.291943        -0.295592        -1.294376
 H         2.617830        -0.854247        -1.956510
 H         4.525352         0.469515        -0.284757
 H         4.511813         2.888825        -1.076106
 H         3.553091         2.101262        -2.545191
 H         2.358830         4.093264        -1.134807
 H         1.550427         2.563135        -1.807724
 H         2.604120         1.252571         1.487501
