19
Iteration:  1371
 C        -0.107626         0.047878        -0.143848
 C         1.405679         0.151143        -0.226076
 O         2.090158        -1.066363         0.063517
 C         2.558536        -0.240891        -1.072407
 C         3.497064         0.901098        -0.546750
 C         3.759283         2.045739        -1.414819
 C         2.445420         2.979083        -1.082446
 O         1.831794         2.561940         0.162161
 C         2.276184         1.209589         0.502279
 H        -0.160776        -0.280353         0.870628
 H        -0.473984         1.040913        -0.149507
 H        -0.368378        -0.742288        -0.813700
 H         2.630261        -0.805016        -2.053789
 H         4.344082         0.280229        -0.173960
 H         4.643608         2.689201        -1.231160
 H         3.868595         1.786582        -2.554120
 H         2.784362         4.031990        -0.801496
 H         1.717019         3.268616        -1.837310
 H         2.474672         1.123330         1.571020
