19
Iteration:  3845
 C        -0.093906         0.074130        -0.278885
 C         1.426555        -0.005606        -0.192658
 O         2.219892        -1.115125         0.245502
 C         2.607963        -0.322552        -0.981909
 C         3.370546         0.911164        -0.576530
 C         3.309034         2.127184        -1.686829
 C         2.842344         3.218078        -0.728901
 O         1.793505         2.491145         0.045453
 C         2.281491         1.216867         0.386669
 H        -0.485119         0.012234         0.782872
 H        -0.650786         0.921055        -0.772454
 H        -0.475241        -0.839950        -0.693450
 H         2.845362        -0.929333        -1.880491
 H         4.438155         0.888477        -0.362837
 H         4.349608         2.111046        -2.155954
 H         2.491559         2.022908        -2.494547
 H         3.756417         3.328782        -0.061241
 H         2.389811         4.119182        -1.156839
 H         2.426711         1.159594         1.478811
