19
Iteration:  3421
 C        -0.100801         0.048233        -0.110265
 C         1.354511         0.122827        -0.181552
 O         2.115740        -1.078837        -0.002552
 C         2.529259        -0.226433        -1.107794
 C         3.510369         0.901111        -0.557233
 C         3.716662         2.102618        -1.303629
 C         2.345617         2.866058        -1.154843
 O         1.981654         2.613722         0.270686
 C         2.297946         1.210013         0.436256
 H        -0.678726        -0.197291         0.796596
 H        -0.381562         1.082259        -0.287656
 H        -0.449120        -0.517887        -0.919983
 H         2.588910        -0.536759        -2.122324
 H         4.472846         0.432635        -0.139511
 H         4.680772         2.787957        -1.026191
 H         3.819830         1.947662        -2.404412
 H         2.351000         3.969087        -1.338059
 H         1.626867         2.459099        -1.877800
 H         2.800334         1.167228         1.412366
