19
Iteration:  3922
 C        -0.071648        -0.068332        -0.171295
 C         1.406983         0.136785        -0.136856
 O         2.178923        -1.135337         0.082364
 C         2.463809        -0.279932        -1.076384
 C         3.394684         0.822138        -0.589366
 C         3.568696         2.034670        -1.536776
 C         2.643582         3.233482        -0.916265
 O         1.791322         2.587899         0.133162
 C         2.343014         1.264950         0.505053
 H        -0.556745        -0.374500         0.820945
 H        -0.597300         0.775555        -0.723159
 H        -0.196766        -0.937686        -0.749197
 H         2.384449        -0.747302        -2.005085
 H         4.394924         0.504073        -0.279854
 H         4.671781         2.382692        -1.505942
 H         3.442533         1.869125        -2.660439
 H         3.426630         3.984723        -0.571489
 H         2.044749         3.791750        -1.595265
 H         2.696489         1.230282         1.516288
