19
Iteration:  3344charge 0 multiplicity 1
 C        -0.044198         0.318591        -0.177183
 C         1.437638         0.092938        -0.151281
 O         2.155290        -1.135484        -0.009005
 C         2.582634        -0.229877        -1.115786
 C         3.539011         0.827499        -0.510032
 C         3.581352         2.078664        -1.301063
 C         2.249822         2.840867        -1.165343
 O         1.900744         2.572739         0.239587
 C         2.406995         1.191514         0.444513
 H        -0.324943         0.067214         0.862710
 H        -0.433270         1.268449        -0.444123
 H        -0.566647        -0.411311        -0.796779
 H         2.660919        -0.605605        -2.122005
 H         4.493662         0.381967        -0.071304
 H         4.351968         2.816552        -0.781405
 H         3.904079         2.081333        -2.356650
 H         2.329138         3.936796        -1.343436
 H         1.489165         2.464158        -1.835771
 H         2.395657         1.002970         1.543486
