19
Iteration:  1092charge 0 multiplicity 1
 C        -0.014296         0.172656        -0.115764
 C         1.469008         0.099599        -0.194649
 O         2.176791        -1.032193         0.082437
 C         2.508839        -0.176283        -1.256482
 C         3.472045         0.758573        -0.589229
 C         3.723627         2.153152        -1.242836
 C         2.430214         2.838487        -1.137621
 O         1.822505         2.538925         0.242688
 C         2.228947         1.224936         0.452884
 H        -0.363584         0.502651         0.837586
 H        -0.359177         0.986616        -0.772672
 H        -0.527229        -0.634440        -0.517524
 H         2.411546        -0.751097        -2.117789
 H         4.354422         0.138362        -0.462266
 H         4.684075         2.587999        -0.785603
 H         3.956637         2.065792        -2.330910
 H         2.508276         3.882927        -1.211314
 H         1.478788         2.544582        -1.773626
 H         2.280528         1.161072         1.569385
