19
Iteration:  2425
 C        -0.060331         0.025993        -0.223631
 C         1.428801         0.171218        -0.156860
 O         2.165974        -1.093447         0.047209
 C         2.457211        -0.171279        -1.130389
 C         3.392958         0.809085        -0.589052
 C         3.735529         2.101735        -1.266418
 C         2.385699         2.888689        -1.201280
 O         1.972463         2.603648         0.312264
 C         2.300297         1.265445         0.447106
 H        -0.407176         0.127785         0.850712
 H        -0.480122         0.997634        -0.696040
 H        -0.430777        -0.879421        -0.838807
 H         2.322395        -0.764719        -2.103152
 H         4.254364         0.226892        -0.192470
 H         4.467796         2.738308        -0.644085
 H         4.170736         2.205594        -2.235407
 H         2.336365         3.971099        -1.403797
 H         1.682743         2.378129        -1.966939
 H         2.422996         1.192571         1.558856
