19
Iteration:  2956
 C        -0.036051         0.104802        -0.264424
 C         1.436916         0.064163        -0.153857
 O         2.204310        -1.122074         0.121842
 C         2.482967        -0.332312        -1.030248
 C         3.438615         0.859988        -0.603285
 C         3.519474         2.075336        -1.485550
 C         2.568421         3.121149        -0.894584
 O         1.801986         2.562318         0.137394
 C         2.375846         1.220755         0.443347
 H        -0.439817        -0.482276         0.583049
 H        -0.575573         1.080994        -0.210621
 H        -0.271728        -0.471204        -1.111833
 H         2.195317        -0.618534        -2.026369
 H         4.344707         0.611134        -0.101124
 H         4.535148         2.443032        -1.511888
 H         3.332443         1.553118        -2.500495
 H         3.061888         4.025592        -0.534730
 H         2.016490         3.656086        -1.789743
 H         2.497902         1.232365         1.551726
