19
Iteration:  3136
 C        -0.018159         0.128201        -0.114564
 C         1.464920         0.216103        -0.172872
 O         2.137590        -1.067240        -0.087161
 C         2.593541        -0.258476        -1.137152
 C         3.468807         0.772844        -0.439427
 C         3.640541         2.065306        -1.334602
 C         2.276078         2.812800        -1.175611
 O         1.960435         2.634388         0.253370
 C         2.267838         1.291286         0.513158
 H        -0.395159        -0.432944         0.764919
 H        -0.372232         1.135755        -0.131651
 H        -0.402466        -0.414076        -1.061681
 H         2.470723        -0.515383        -2.208772
 H         4.500107         0.373149        -0.140059
 H         4.487641         2.725412        -1.032950
 H         3.893515         1.869375        -2.313548
 H         2.311516         3.909289        -1.368518
 H         1.391081         2.368216        -1.745300
 H         2.459709         1.019731         1.542502
