19
Iteration:  2910
 C        -0.065147         0.007071        -0.211754
 C         1.443372         0.164975        -0.172982
 O         2.189395        -1.146489         0.076274
 C         2.559697        -0.309814        -1.038475
 C         3.505384         0.856629        -0.455599
 C         3.384970         2.031935        -1.543381
 C         2.682060         3.172934        -0.902983
 O         1.814130         2.558843         0.128518
 C         2.240529         1.262669         0.391999
 H        -0.526859        -0.449833         0.681631
 H        -0.386353         0.961240        -0.186041
 H        -0.454616        -0.481430        -1.121820
 H         2.591454        -0.763178        -2.074087
 H         4.390376         0.541426         0.001586
 H         4.445890         2.369781        -1.720723
 H         3.028853         1.429919        -2.514919
 H         3.388695         3.791305        -0.405539
 H         2.116683         3.865440        -1.515506
 H         2.567580         1.344232         1.407141
