19
Iteration:  1359charge 0 multiplicity 1
 C        -0.100764        -0.011109        -0.143181
 C         1.402342         0.129815        -0.102714
 O         2.107848        -1.101776         0.038416
 C         2.470691        -0.248741        -1.074970
 C         3.449192         0.832669        -0.558855
 C         3.774613         2.153715        -1.386851
 C         2.528786         3.055066        -1.081116
 O         1.813614         2.534335         0.141151
 C         2.372541         1.303580         0.464805
 H        -0.541167        -0.310096         0.772562
 H        -0.634148         0.828341        -0.490247
 H        -0.473431        -0.730722        -0.867340
 H         2.298997        -0.681043        -2.047053
 H         4.411458         0.476310        -0.167333
 H         4.786522         2.476359        -1.096550
 H         3.723372         1.775177        -2.492027
 H         2.712964         4.158823        -0.936504
 H         1.885934         2.795097        -1.866748
 H         2.547653         1.159172         1.544059
