19
Iteration:  1339charge 0 multiplicity 1
 C        -0.085418        -0.012816        -0.170970
 C         1.406939         0.073498         0.001793
 O         2.231991        -1.131078        -0.003988
 C         2.346917        -0.181261        -1.047530
 C         3.369597         0.827164        -0.580440
 C         3.719730         2.112657        -1.297513
 C         2.478333         3.029514        -1.156077
 O         1.961154         2.622349         0.063072
 C         2.302409         1.264526         0.498371
 H        -0.647542        -0.217596         0.753326
 H        -0.405328         0.906391        -0.688500
 H        -0.210272        -0.913800        -0.804976
 H         2.144269        -0.583117        -2.081493
 H         4.226985         0.172428        -0.240012
 H         4.374640         2.657204        -0.611122
 H         4.062597         1.921476        -2.324502
 H         2.955061         3.995324        -0.831721
 H         1.679442         3.116189        -2.015154
 H         2.502429         1.172987         1.554194
