19
Iteration:  2636charge 0 multiplicity 1
 C        -0.076706        -0.162241        -0.239135
 C         1.364564         0.075631        -0.117120
 O         2.196139        -1.011907         0.165465
 C         2.546720        -0.377331        -1.025154
 C         3.370348         0.879582        -0.610415
 C         3.554243         2.147403        -1.619779
 C         2.786507         3.176740        -0.723173
 O         1.815527         2.566237         0.006838
 C         2.187427         1.259128         0.435891
 H        -0.567417         0.324122         0.667651
 H        -0.453375         0.631485        -0.925031
 H        -0.478836        -1.123230        -0.626370
 H         2.373385        -0.850865        -1.964886
 H         4.312923         0.513105        -0.205001
 H         4.639731         2.419789        -1.764503
 H         3.132680         1.844615        -2.511155
 H         3.371659         3.742667        -0.044183
 H         2.341309         3.945188        -1.439411
 H         2.572073         1.142508         1.471710
