19
Iteration:  1712
 C        -0.064182         0.271444        -0.282169
 C         1.456395         0.163337        -0.221818
 O         2.079986        -1.130001        -0.021467
 C         2.650491        -0.206215        -1.079858
 C         3.531206         0.874187        -0.351205
 C         3.578282         2.054572        -1.438989
 C         2.232552         2.737314        -1.164578
 O         2.041068         2.606336         0.322339
 C         2.302845         1.233482         0.558900
 H        -0.370304        -0.050100         0.706665
 H        -0.509534         1.141780        -0.833824
 H        -0.446516        -0.601824        -0.828851
 H         2.726473        -0.600200        -2.029027
 H         4.583865         0.600758        -0.013462
 H         4.281545         2.903786        -1.265941
 H         3.535439         1.715557        -2.446464
 H         2.385300         3.820434        -1.465148
 H         1.404818         2.350389        -1.845572
 H         2.459061         1.007154         1.602814
