19
Iteration:  3309charge 0 multiplicity 1
 C        -0.122636         0.003111        -0.280317
 C         1.397317         0.096434        -0.192451
 O         2.156885        -1.074235         0.151084
 C         2.440743        -0.195291        -1.090605
 C         3.495251         0.841582        -0.520756
 C         3.639194         2.126357        -1.446252
 C         2.411218         2.992897        -1.057650
 O         2.013337         2.630991         0.293899
 C         2.307221         1.190626         0.421924
 H        -0.421969        -0.393857         0.679354
 H        -0.608120         0.901613        -0.472754
 H        -0.200859        -0.855347        -1.022102
 H         2.381703        -0.703528        -2.088685
 H         4.492757         0.486034        -0.316957
 H         4.656842         2.646492        -1.175046
 H         3.561881         1.944302        -2.572646
 H         2.624818         4.028367        -1.263603
 H         1.586577         2.661732        -1.708795
 H         2.617373         1.158168         1.455949
