19
Iteration:  2504
 C        -0.104426         0.087870        -0.195565
 C         1.399278         0.117844        -0.131405
 O         2.193696        -1.163474         0.041023
 C         2.619222        -0.202485        -1.008800
 C         3.435584         0.857803        -0.453250
 C         3.584877         1.989375        -1.511048
 C         2.576968         3.168880        -0.962456
 O         1.758595         2.572953         0.058001
 C         2.309852         1.165567         0.475406
 H        -0.500421        -0.459525         0.785300
 H        -0.533718         1.181565        -0.320255
 H        -0.443333        -0.561019        -1.008432
 H         2.684914        -0.675016        -1.941084
 H         4.402152         0.397393        -0.182761
 H         4.709489         2.354589        -1.551175
 H         3.254770         1.713335        -2.497272
 H         2.989313         4.075462        -0.420009
 H         2.143443         3.466764        -2.002053
 H         2.428393         1.179398         1.627935
