19
Iteration:  2424charge 0 multiplicity 1
 C        -0.060619         0.025303        -0.227300
 C         1.436372         0.171131        -0.166562
 O         2.163561        -1.091301         0.047009
 C         2.453248        -0.172900        -1.129946
 C         3.400914         0.810546        -0.587547
 C         3.733677         2.107465        -1.257925
 C         2.379558         2.871570        -1.203462
 O         1.975056         2.614482         0.313816
 C         2.304099         1.273223         0.452379
 H        -0.398543         0.115386         0.846260
 H        -0.483181         0.986070        -0.677644
 H        -0.473730        -0.905232        -0.834149
 H         2.305683        -0.751648        -2.118526
 H         4.238337         0.205309        -0.193586
 H         4.433893         2.727182        -0.615894
 H         4.153418         2.162078        -2.285197
 H         2.347422         3.953961        -1.367665
 H         1.685818         2.383248        -1.987586
 H         2.442905         1.165691         1.539452
