19
Iteration:  3692
 C         0.056248         0.046460        -0.118807
 C         1.474806         0.010335         0.005717
 O         2.205028        -1.177086         0.096866
 C         2.397351        -0.232950        -1.103266
 C         3.385992         0.925770        -0.625314
 C         3.579759         2.160069        -1.533155
 C         2.766496         3.138446        -0.740981
 O         1.657521         2.475194        -0.122128
 C         2.259042         1.291751         0.428854
 H        -0.497602         0.048120         0.887583
 H        -0.327159         0.863876        -0.812348
 H        -0.420444        -0.779882        -0.614902
 H         2.227186        -0.870378        -1.988314
 H         4.140665         0.225664        -0.245492
 H         4.649865         2.410290        -1.596243
 H         3.123331         1.766004        -2.512303
 H         3.476966         3.578225        -0.029517
 H         2.417845         3.967201        -1.352639
 H         2.597025         1.384321         1.533567
