19
Iteration:   503charge 0 multiplicity 1
 C        -0.045286         0.175011        -0.213021
 C         1.434682         0.204932         0.023254
 O         2.078771        -1.090851        -0.093445
 C         2.369740        -0.070182        -1.151615
 C         3.523243         0.780920        -0.570792
 C         3.705279         2.046189        -1.333312
 C         2.350387         2.814767        -1.131218
 O         1.941651         2.541158         0.222580
 C         2.463709         1.209686         0.600105
 H        -0.634856         0.090827         0.707663
 H        -0.473088         1.005096        -0.782421
 H        -0.216823        -0.805490        -0.733822
 H         1.885688        -0.259464        -2.149863
 H         4.375204         0.131158        -0.275733
 H         4.540662         2.697821        -1.015670
 H         3.874970         1.877624        -2.383244
 H         2.557422         3.886973        -1.221383
 H         1.714966         2.534001        -1.952947
 H         2.662932         1.146727         1.694294
