19
Iteration:  2276charge 0 multiplicity 1
 C        -0.083337        -0.007672        -0.335445
 C         1.385822         0.177431        -0.188875
 O         2.134038        -1.075072        -0.069482
 C         2.473120        -0.151592        -1.073021
 C         3.439274         0.862648        -0.405212
 C         3.656747         2.063325        -1.450814
 C         2.359707         2.836097        -1.122786
 O         2.069245         2.676918         0.318575
 C         2.331165         1.256707         0.612897
 H        -0.386022        -0.154058         0.715522
 H        -0.456002         1.006540        -0.683838
 H        -0.310547        -0.871815        -0.886355
 H         2.568383        -0.651003        -2.055633
 H         4.406110         0.628229         0.014098
 H         4.588640         2.592365        -1.245815
 H         3.582547         1.474345        -2.424333
 H         2.334044         3.974713        -1.174058
 H         1.486805         2.460000        -1.719780
 H         2.421505         0.922621         1.667147
