19
Iteration:  3189charge 0 multiplicity 1
 C         0.006105         0.311297        -0.265462
 C         1.494951         0.094307        -0.057862
 O         2.177229        -1.209143        -0.010257
 C         2.474566        -0.163807        -1.074898
 C         3.503170         0.828903        -0.526524
 C         3.614284         2.134402        -1.327271
 C         2.221122         2.804274        -1.139643
 O         1.915407         2.534180         0.186817
 C         2.380974         1.267574         0.527868
 H        -0.473836         0.264157         0.675542
 H        -0.195704         1.251164        -0.670087
 H        -0.354902        -0.557128        -0.857870
 H         2.282417        -0.581711        -2.088756
 H         4.487086         0.340885        -0.340885
 H         4.334192         2.824062        -0.785046
 H         4.088088         1.861531        -2.298973
 H         2.129455         3.874670        -1.221345
 H         1.405192         2.438504        -1.788660
 H         2.708851         1.199768         1.549181
