19
Iteration:   578
 C        -0.131124         0.228095        -0.187754
 C         1.389879         0.169908        -0.134103
 O         2.108649        -1.053735         0.067239
 C         2.496877        -0.280225        -1.136263
 C         3.488352         0.770800        -0.554949
 C         3.617126         2.129694        -1.402633
 C         2.377867         2.929604        -1.064792
 O         2.015354         2.505889         0.246793
 C         2.417070         1.200022         0.451385
 H        -0.574243        -0.490563         0.456242
 H        -0.543498         1.162465        -0.138396
 H        -0.451202        -0.097233        -1.158810
 H         2.475204        -0.797415        -2.131111
 H         4.483005         0.534371        -0.101239
 H         4.499571         2.754475        -1.191798
 H         3.779011         1.878428        -2.424838
 H         2.508035         3.996991        -1.092542
 H         1.660852         2.531639        -1.772220
 H         2.542439         0.962765         1.515549
