19
Iteration:  3775
 C        -0.180217        -0.142314        -0.194167
 C         1.382733         0.090911        -0.148143
 O         2.202104        -1.134544         0.099949
 C         2.487491        -0.246491        -1.069710
 C         3.470226         0.879519        -0.507606
 C         3.462516         2.027838        -1.552500
 C         2.784360         3.257538        -0.877589
 O         1.861609         2.635267         0.109781
 C         2.307881         1.286168         0.433402
 H        -0.512536        -0.541002         0.768134
 H        -0.688675         0.781698        -0.411091
 H        -0.316768        -1.010839        -0.996236
 H         2.517975        -0.741281        -2.091539
 H         4.341142         0.421769        -0.000755
 H         4.453706         2.192301        -1.925976
 H         2.872362         1.698339        -2.417090
 H         3.367534         4.063696        -0.423727
 H         2.052646         3.574303        -1.690776
 H         2.546403         1.163180         1.461459
