19
Iteration:  3527
 C        -0.074590         0.116237        -0.257575
 C         1.453685         0.149994        -0.168722
 O         2.231796        -1.149926         0.122420
 C         2.581531        -0.357386        -0.979937
 C         3.522108         0.826946        -0.564570
 C         3.388080         2.043616        -1.615873
 C         2.629279         3.156040        -0.880573
 O         1.788213         2.563877         0.173863
 C         2.255883         1.201250         0.427525
 H        -0.315479         0.359538         0.821906
 H        -0.323513         0.923926        -0.947332
 H        -0.596568        -0.857920        -0.657484
 H         2.647116        -0.873484        -1.909840
 H         4.537426         0.671881        -0.210067
 H         4.384200         2.252039        -1.721445
 H         2.914454         1.867228        -2.596381
 H         3.294732         3.845508        -0.345274
 H         2.049098         3.774928        -1.615731
 H         2.247679         1.212142         1.550751
