19
Iteration:   976charge 0 multiplicity 1
 C        -0.056364         0.180061        -0.203639
 C         1.436358         0.103463        -0.227332
 O         2.087693        -1.156485         0.032284
 C         2.600363        -0.392418        -1.016370
 C         3.424927         0.784919        -0.529788
 C         3.643021         2.150446        -1.429688
 C         2.292057         3.021993        -1.047852
 O         2.052879         2.622676         0.247994
 C         2.261720         1.248244         0.441833
 H        -0.322012        -0.339895         0.726552
 H        -0.361807         1.271897        -0.060623
 H        -0.408527        -0.185652        -1.197155
 H         2.675086        -1.078099        -1.914701
 H         4.400213         0.424403        -0.130941
 H         4.475648         2.622134        -1.045203
 H         3.846746         2.065355        -2.512587
 H         2.529795         4.155406        -1.258056
 H         1.539939         2.696093        -1.844044
 H         2.384104         1.191447         1.539497
