19
Iteration:  1036charge 0 multiplicity 1
 C         0.009750         0.115241        -0.203806
 C         1.403201         0.077905        -0.093913
 O         2.132461        -1.172347        -0.117702
 C         2.422818        -0.120601        -1.073438
 C         3.427370         0.896824        -0.440874
 C         3.706582         2.075496        -1.310596
 C         2.360568         2.821235        -1.209873
 O         1.974222         2.634974         0.209421
 C         2.362869         1.294184         0.556818
 H        -0.488504        -0.491674         0.549161
 H        -0.362872         1.097229        -0.107143
 H        -0.391717        -0.392253        -1.033442
 H         2.115243        -0.418207        -2.020667
 H         4.316882         0.421548        -0.028931
 H         4.613057         2.705922        -0.949876
 H         3.826745         1.698073        -2.323155
 H         2.568241         3.822491        -1.475732
 H         1.450335         2.315104        -1.767977
 H         2.564444         1.363849         1.627620
