19
Iteration:  3203
 C         0.073890         0.245914        -0.224812
 C         1.473229         0.129817        -0.119500
 O         2.175120        -1.172503         0.068363
 C         2.516174        -0.273372        -1.149439
 C         3.407049         0.842416        -0.583054
 C         3.598321         2.118658        -1.337665
 C         2.323864         2.895026        -1.177770
 O         1.832369         2.559873         0.282377
 C         2.392072         1.196839         0.534112
 H        -0.436292         0.360402         0.770079
 H        -0.115290         1.143318        -0.805949
 H        -0.457532        -0.525574        -0.850450
 H         2.452821        -0.527922        -2.229836
 H         4.431315         0.507147        -0.151957
 H         4.519129         2.616516        -0.983278
 H         3.668587         2.120573        -2.376215
 H         2.624396         3.974976        -1.319028
 H         1.562666         2.545724        -1.968456
 H         2.446991         1.160927         1.639056
