19
Iteration:  2038
 C         0.026409         0.234926        -0.324006
 C         1.507698         0.172654        -0.148985
 O         2.096906        -1.149183         0.020861
 C         2.582388        -0.195912        -0.987752
 C         3.543271         0.863837        -0.455372
 C         3.479677         2.014212        -1.450022
 C         2.387778         2.932657        -1.121741
 O         1.834840         2.510474         0.266358
 C         2.349674         1.206978         0.561412
 H        -0.538934         0.340063         0.601484
 H        -0.179779         0.862885        -1.217403
 H        -0.429328        -0.625802        -0.669996
 H         2.748775        -0.372689        -2.099292
 H         4.531951         0.457610        -0.144984
 H         4.382039         2.730041        -1.596177
 H         3.325107         1.747827        -2.539373
 H         2.809254         3.972942        -0.929677
 H         1.548063         3.013779        -1.788991
 H         2.602137         0.780934         1.547776
