19
Iteration:  1728charge 0 multiplicity 1
 C        -0.009195         0.177556        -0.367328
 C         1.465469         0.201063        -0.177633
 O         2.052568        -1.062782        -0.007163
 C         2.584742        -0.208599        -0.996297
 C         3.590607         0.897751        -0.447909
 C         3.545027         2.011442        -1.448557
 C         2.254771         2.815791        -1.060444
 O         1.957609         2.550028         0.278743
 C         2.406597         1.230063         0.546880
 H        -0.577184         0.145136         0.596434
 H        -0.325745         1.172086        -0.648728
 H        -0.385438        -0.503254        -1.130026
 H         2.649464        -0.599710        -2.084892
 H         4.482141         0.613062         0.063345
 H         4.571110         2.377729        -1.561864
 H         3.492088         1.492412        -2.532155
 H         2.204997         3.877853        -1.098019
 H         1.396955         2.408321        -1.555298
 H         2.509206         1.167311         1.658591
