19
Iteration:   196charge 0 multiplicity 1
 C        -0.009317         0.069947        -0.214634
 C         1.450401         0.126103        -0.032300
 O         2.028160        -1.171572        -0.038838
 C         2.355147        -0.072418        -1.044105
 C         3.517498         0.789067        -0.582208
 C         3.656029         2.051694        -1.367002
 C         2.415306         2.960955        -1.097629
 O         2.022549         2.586465         0.168352
 C         2.368740         1.258417         0.536331
 H        -0.625314        -0.389570         0.619204
 H        -0.323672         1.133679        -0.271113
 H        -0.238363        -0.456047        -1.161498
 H         1.954342        -0.440040        -2.021822
 H         4.423075         0.343356        -0.268155
 H         4.605715         2.484494        -0.995128
 H         3.815425         1.800806        -2.416168
 H         2.677741         4.040808        -1.121969
 H         1.630110         2.781857        -1.882770
 H         2.458632         1.300647         1.697554
