19
Iteration:   437charge 0 multiplicity 1
 C        -0.071562         0.233251        -0.112221
 C         1.426936         0.167475        -0.245507
 O         2.149589        -1.080781         0.020130
 C         2.511427        -0.281433        -1.150171
 C         3.350583         0.847914        -0.581940
 C         3.687185         2.046975        -1.400136
 C         2.467517         2.916685        -1.043398
 O         1.955633         2.561297         0.288801
 C         2.287189         1.189966         0.436066
 H        -0.359921        -0.161701         0.888616
 H        -0.655098         1.149678        -0.362997
 H        -0.523532        -0.546499        -0.783183
 H         2.558685        -0.761553        -2.233656
 H         4.259571         0.504398         0.009851
 H         4.711122         2.414268        -1.195404
 H         3.769198         1.756753        -2.429483
 H         2.728879         3.988061        -0.911624
 H         1.517598         2.899571        -1.645109
 H         2.632317         1.065249         1.517468
