19
Iteration:  2359
 C        -0.008248         0.254878        -0.232384
 C         1.446071         0.160641        -0.075395
 O         2.183058        -1.131221        -0.073586
 C         2.585873        -0.257326        -1.060120
 C         3.500933         0.744534        -0.464252
 C         3.575514         2.077056        -1.332197
 C         2.313019         2.899417        -1.144351
 O         1.889928         2.556157         0.210794
 C         2.295965         1.283321         0.521229
 H        -0.653778        -0.129692         0.587261
 H        -0.317389         1.304131        -0.382806
 H        -0.195256        -0.250086        -1.219015
 H         2.690021        -0.544915        -2.169903
 H         4.442872         0.405812         0.012453
 H         4.585950         2.432047        -1.249676
 H         3.641230         1.799173        -2.308307
 H         2.377146         3.958384        -1.062081
 H         1.503293         2.663116        -1.889488
 H         2.482378         1.055758         1.569803
