19
Iteration:  3778
 C        -0.186709        -0.172768        -0.215888
 C         1.360718         0.094561        -0.121580
 O         2.193995        -1.119041         0.100137
 C         2.521443        -0.220575        -1.054811
 C         3.455813         0.881238        -0.497468
 C         3.477827         2.021071        -1.557249
 C         2.791318         3.259260        -0.882486
 O         1.880464         2.620298         0.111208
 C         2.307566         1.282878         0.414404
 H        -0.454630        -0.590446         0.710222
 H        -0.698729         0.799275        -0.443786
 H        -0.336149        -0.972811        -0.933814
 H         2.300193        -0.755922        -2.050715
 H         4.378584         0.448518        -0.108272
 H         4.470545         2.200133        -1.979889
 H         2.773781         1.693280        -2.435632
 H         3.347775         4.114215        -0.407716
 H         1.999549         3.577488        -1.590882
 H         2.527545         1.169378         1.472530
