19
Iteration:  4781
 C        -0.134222        -0.146721        -0.218111
 C         1.327650         0.074474        -0.256881
 O         2.275469        -1.126615         0.227166
 C         2.501212        -0.430585        -1.042374
 C         3.375793         0.833195        -0.722733
 C         3.425627         2.158419        -1.539504
 C         2.901014         3.292244        -0.680340
 O         1.865297         2.663105         0.137083
 C         2.212202         1.262996         0.324696
 H        -0.556881        -0.435493         0.688645
 H        -0.783256         0.755673        -0.592540
 H        -0.378188        -0.917383        -0.986076
 H         2.311111        -1.030212        -1.994256
 H         4.380829         0.724259        -0.262255
 H         4.442063         2.313300        -1.824982
 H         2.769918         2.052675        -2.426480
 H         3.518135         3.761979        -0.006412
 H         2.445933         4.020415        -1.481486
 H         2.520761         1.089806         1.314348
