19
Iteration:  2573charge 0 multiplicity 1
 C        -0.093749        -0.098647        -0.290927
 C         1.386803         0.059760        -0.164551
 O         2.241337        -1.091003         0.224233
 C         2.534804        -0.266254        -0.956466
 C         3.371353         0.909060        -0.611739
 C         3.426376         2.065979        -1.602094
 C         2.875394         3.152058        -0.686809
 O         1.752062         2.589952        -0.050073
 C         2.239768         1.278757         0.385610
 H        -0.454132        -0.190981         0.766321
 H        -0.527386         0.759273        -0.742696
 H        -0.414101        -1.011940        -0.876032
 H         2.625788        -0.627330        -2.018420
 H         4.304600         0.763244        -0.094205
 H         4.412688         2.127489        -1.992207
 H         2.748810         1.777872        -2.523474
 H         3.730673         3.344729         0.036474
 H         2.464644         4.147664        -1.061130
 H         2.551371         1.165342         1.469432
