19
Iteration:  3454charge 0 multiplicity 1
 C        -0.053498        -0.063017        -0.174916
 C         1.351390         0.143056        -0.225811
 O         2.192406        -1.054128         0.116542
 C         2.467570        -0.328737        -1.044129
 C         3.389734         0.853430        -0.597217
 C         3.601376         2.064573        -1.423655
 C         2.518034         3.121942        -1.044619
 O         2.015964         2.619966         0.228674
 C         2.225018         1.259781         0.399808
 H        -0.381019        -0.642513         0.713657
 H        -0.527943         0.909689        -0.349584
 H        -0.262709        -0.676902        -0.996728
 H         2.442218        -0.712328        -2.054301
 H         4.354553         0.340483        -0.236941
 H         4.648920         2.575606        -1.055074
 H         3.572822         1.843474        -2.513679
 H         3.003674         4.104063        -0.811322
 H         1.665673         3.131831        -1.729965
 H         2.387728         0.912282         1.470143
