19
Iteration:  3403
 C        -0.009665         0.203213        -0.198995
 C         1.473677         0.148625        -0.100644
 O         2.137420        -1.122315        -0.100083
 C         2.439520        -0.165874        -1.110582
 C         3.466562         0.836596        -0.453381
 C         3.662137         2.139535        -1.343877
 C         2.289723         2.766532        -1.181703
 O         1.972811         2.554251         0.178160
 C         2.390331         1.264054         0.605996
 H        -0.373895        -0.162943         0.779923
 H        -0.462238         1.236391        -0.352844
 H        -0.337566        -0.665439        -0.789797
 H         2.323626        -0.481329        -2.198925
 H         4.380239         0.276398        -0.164301
 H         4.282074         2.791704        -0.768778
 H         4.011883         1.994348        -2.363933
 H         2.241211         3.848933        -1.311210
 H         1.552304         2.190536        -1.758274
 H         2.310013         1.194623         1.703944
