19
Iteration:  3822
 C        -0.055917        -0.120010        -0.332002
 C         1.395534         0.077195        -0.119574
 O         2.232364        -1.036810         0.227088
 C         2.479141        -0.410781        -1.015954
 C         3.405972         0.828917        -0.710868
 C         3.412717         2.014894        -1.569748
 C         2.789256         3.260453        -0.765618
 O         1.832913         2.657945         0.163375
 C         2.270482         1.299324         0.375034
 H        -0.468567        -0.389500         0.629956
 H        -0.521951         0.901215        -0.620837
 H        -0.297977        -0.969796        -0.991226
 H         2.386280        -0.780247        -2.091608
 H         4.339282         0.575552        -0.192786
 H         4.345204         2.090540        -2.169846
 H         2.557009         1.808810        -2.326155
 H         3.572198         3.689937        -0.090300
 H         2.335633         3.970049        -1.505707
 H         2.574030         1.215314         1.412388
