19
Iteration:   966charge 0 multiplicity 1
 C        -0.056750         0.175636        -0.244058
 C         1.420014         0.123705        -0.223948
 O         2.116293        -1.190683         0.026874
 C         2.622270        -0.339365        -1.029221
 C         3.498394         0.810586        -0.526293
 C         3.539916         2.050500        -1.403269
 C         2.357341         2.972271        -1.132440
 O         2.022254         2.687428         0.286826
 C         2.265643         1.258046         0.467154
 H        -0.455135        -0.170973         0.675421
 H        -0.257376         1.252305        -0.183766
 H        -0.749797        -0.275322        -0.951017
 H         2.730774        -0.797167        -2.076972
 H         4.518656         0.490792        -0.203756
 H         4.344629         2.599082        -1.030555
 H         3.706765         1.771450        -2.447012
 H         2.638800         4.026528        -0.893796
 H         1.367230         2.937316        -1.693433
 H         2.413630         1.044203         1.521326
