19
Iteration:  4140
 C        -0.085215        -0.150606        -0.458234
 C         1.400441         0.096656        -0.140622
 O         2.120180        -1.090539         0.141548
 C         2.471436        -0.248684        -1.063744
 C         3.405297         0.825829        -0.568427
 C         3.520099         2.147815        -1.506858
 C         2.456471         3.136610        -0.952489
 O         2.162604         2.663518         0.384495
 C         2.323382         1.251853         0.424609
 H        -0.678248        -0.311605         0.495306
 H        -0.543843         0.705181        -1.005865
 H        -0.235819        -1.005164        -1.064835
 H         2.403411        -0.746061        -2.057463
 H         4.357888         0.423345        -0.161720
 H         4.557180         2.461601        -1.636931
 H         3.107859         1.756459        -2.410579
 H         2.904597         4.177825        -0.842981
 H         1.456206         3.045251        -1.360910
 H         2.485425         1.064898         1.461522
