19
Iteration:  3378charge 0 multiplicity 1
 C        -0.028876         0.347931        -0.189581
 C         1.511339         0.136974         0.025040
 O         2.140906        -1.111400        -0.166696
 C         2.521632        -0.067939        -1.084397
 C         3.533021         0.823774        -0.480550
 C         3.631517         2.098919        -1.315860
 C         2.234874         2.662278        -1.200161
 O         1.841945         2.493770         0.193745
 C         2.450128         1.209822         0.538178
 H        -0.696745         0.195691         0.687341
 H        -0.265355         1.373686        -0.520329
 H        -0.283967        -0.481120        -0.749328
 H         2.467558        -0.407332        -2.094040
 H         4.476897         0.436173         0.086314
 H         4.402820         2.827161        -0.761437
 H         3.929369         1.893459        -2.372158
 H         2.154923         3.763726        -1.430059
 H         1.557570         2.105273        -1.814494
 H         2.522179         1.075957         1.650090
