19
Iteration:  3365charge 0 multiplicity 1
 C         0.027817         0.355359        -0.154042
 C         1.436799         0.150405        -0.090542
 O         2.135375        -1.138317        -0.105637
 C         2.522242        -0.198148        -1.106320
 C         3.517320         0.922541        -0.439387
 C         3.689698         2.167361        -1.381895
 C         2.246390         2.698972        -1.154825
 O         1.886240         2.437010         0.185512
 C         2.328126         1.179294         0.612518
 H        -0.349034         0.262071         0.873507
 H        -0.171722         1.268293        -0.650029
 H        -0.459254        -0.276255        -0.924428
 H         2.457944        -0.437767        -2.168222
 H         4.502094         0.398274        -0.221747
 H         4.538643         2.955252        -0.979754
 H         3.901325         2.016896        -2.498104
 H         2.015907         3.768275        -1.368971
 H         1.634722         2.084115        -1.823800
 H         2.595062         1.308791         1.690263
