19
Iteration:  4320charge 0 multiplicity 1
 C        -0.103369         0.028696        -0.148493
 C         1.384051         0.133963        -0.107990
 O         2.198559        -1.136316        -0.072553
 C         2.485952        -0.224994        -1.102377
 C         3.452552         0.783205        -0.620009
 C         3.675228         2.164233        -1.330649
 C         2.449301         3.028639        -1.063745
 O         1.887568         2.587711         0.203348
 C         2.333244         1.210643         0.531350
 H        -0.577620        -0.327213         0.733566
 H        -0.522899         1.013304        -0.307940
 H        -0.424354        -0.665667        -0.984524
 H         2.394002        -0.534712        -2.127321
 H         4.450578         0.430436        -0.297589
 H         4.580643         2.628835        -0.925582
 H         3.855270         2.024243        -2.435088
 H         2.728178         4.042712        -0.879057
 H         1.688608         2.844305        -1.782227
 H         2.558805         1.271904         1.644583
