19
Iteration:  1208
 C         0.038419         0.235534        -0.385006
 C         1.474459         0.174531        -0.146642
 O         2.089261        -1.166340         0.108115
 C         2.482583        -0.352964        -1.021707
 C         3.532492         0.834060        -0.588214
 C         3.592333         2.163550        -1.418710
 C         2.289687         2.878461        -1.067988
 O         1.918768         2.651855         0.293964
 C         2.411506         1.177770         0.539071
 H        -0.488425        -0.417675         0.397731
 H        -0.512448         1.194161        -0.230813
 H        -0.295599        -0.275109        -1.369041
 H         2.444369        -0.729327        -2.006229
 H         4.550561         0.411079        -0.418550
 H         4.392269         2.842545        -1.191131
 H         3.702205         1.963456        -2.438563
 H         2.360738         3.975336        -1.332577
 H         1.519967         2.473229        -1.704413
 H         2.575115         0.909044         1.572837
