19
Iteration:  1239
 C        -0.007221         0.312487        -0.310424
 C         1.411966         0.106816        -0.006379
 O         2.218381        -1.095100         0.010083
 C         2.464050        -0.150045        -1.076527
 C         3.469522         0.890727        -0.502693
 C         3.594799         2.088100        -1.375623
 C         2.290715         2.780774        -1.148070
 O         1.905009         2.507487         0.217223
 C         2.424672         1.123761         0.556653
 H        -0.726170        -0.106135         0.405792
 H        -0.281401         1.327170        -0.502783
 H        -0.284413        -0.092798        -1.305803
 H         2.622653        -0.539890        -2.031098
 H         4.420805         0.420583        -0.262489
 H         4.315220         2.803277        -1.038884
 H         3.894344         1.730670        -2.373449
 H         2.432808         3.928786        -1.263936
 H         1.387045         2.445335        -1.861635
 H         2.697895         1.093888         1.593181
