19
Iteration:   125
 C        -0.146104         0.292397        -0.130263
 C         1.388875         0.240440        -0.291116
 O         2.181533        -1.053604        -0.016566
 C         2.508576        -0.364966        -1.130529
 C         3.427086         0.794239        -0.542462
 C         3.686664         2.101530        -1.288809
 C         2.325497         2.798833        -1.061756
 O         2.008368         2.578533         0.300996
 C         2.374516         1.223299         0.405194
 H        -0.405310         0.360218         0.933551
 H        -0.440300         1.282605        -0.537476
 H        -0.597158        -0.582890        -0.617345
 H         2.648427        -0.771240        -2.180366
 H         4.438173         0.328251        -0.202472
 H         4.601073         2.649058        -0.960544
 H         3.764976         1.765258        -2.343581
 H         2.213062         3.884245        -1.265642
 H         1.653497         2.192255        -1.668856
 H         2.540313         0.913273         1.400170
