19
Iteration:  1322charge 0 multiplicity 1
 C        -0.129582        -0.042052        -0.162669
 C         1.413356         0.090986        -0.058332
 O         2.245875        -1.089060         0.007638
 C         2.328255        -0.201789        -1.174159
 C         3.371516         0.843448        -0.569570
 C         3.773019         2.084695        -1.280778
 C         2.548367         3.000277        -1.219870
 O         1.872962         2.620345         0.218709
 C         2.298176         1.275540         0.508329
 H        -0.489983         0.085038         0.896411
 H        -0.302624         0.964603        -0.625695
 H        -0.400944        -0.999726        -0.644815
 H         2.200515        -0.501956        -2.240410
 H         4.248776         0.365192        -0.135514
 H         4.635039         2.490921        -0.711492
 H         4.177809         1.975272        -2.338503
 H         2.478891         4.038463        -1.384197
 H         1.880611         2.522171        -1.891783
 H         2.663926         1.393274         1.570057
