19
Iteration:   763
 C        -0.173831         0.103355        -0.087181
 C         1.380080         0.110436        -0.257262
 O         2.088779        -1.132415        -0.016245
 C         2.529569        -0.275586        -1.065302
 C         3.500435         0.834073        -0.554607
 C         3.701459         2.150734        -1.338299
 C         2.401388         2.894236        -1.224555
 O         2.067203         2.652698         0.251231
 C         2.261946         1.239024         0.486372
 H        -0.396610        -0.632580         0.771877
 H        -0.372963         1.144490         0.184135
 H        -0.799693         0.003945        -1.003914
 H         2.697171        -0.745875        -2.062271
 H         4.519401         0.464804        -0.247389
 H         4.516038         2.637969        -0.713027
 H         4.095775         2.014990        -2.345328
 H         2.461426         3.964355        -1.185623
 H         1.516229         2.480293        -1.620644
 H         2.290167         1.113914         1.577480
