19
Iteration:  4149charge 0 multiplicity 1
 C        -0.074602        -0.163722        -0.404372
 C         1.320633         0.109115        -0.181733
 O         2.118133        -1.003531         0.076749
 C         2.474261        -0.331389        -1.078745
 C         3.472496         0.878329        -0.481003
 C         3.466857         2.112371        -1.540285
 C         2.476610         3.169382        -0.944439
 O         2.173138         2.579691         0.337812
 C         2.320737         1.229073         0.528272
 H        -0.574235        -0.298611         0.491114
 H        -0.619334         0.763001        -0.851394
 H        -0.193205        -0.950953        -1.104604
 H         2.459522        -0.761291        -2.045180
 H         4.414425         0.548204         0.007671
 H         4.385094         2.654344        -1.654104
 H         3.240365         1.747836        -2.553783
 H         2.801491         4.224193        -0.914130
 H         1.686295         3.324768        -1.701620
 H         2.495618         0.940741         1.563378
