19
Iteration:  3626
 C        -0.121770        -0.225422        -0.138653
 C         1.356090         0.137237        -0.221935
 O         2.224695        -1.103202         0.131255
 C         2.486279        -0.357374        -1.034489
 C         3.315609         0.867639        -0.603996
 C         3.470243         2.005898        -1.559424
 C         2.912574         3.256944        -0.761610
 O         1.816848         2.685532         0.079883
 C         2.231102         1.331381         0.338804
 H        -0.260600        -0.666894         0.918467
 H        -0.776493         0.667793        -0.326984
 H        -0.174780        -0.991112        -0.957769
 H         2.692063        -0.922989        -1.922492
 H         4.250308         0.686173        -0.039331
 H         4.462657         2.290969        -1.830940
 H         2.892392         1.843616        -2.526264
 H         3.639721         3.865220        -0.233508
 H         2.398354         3.921872        -1.472995
 H         2.634982         1.243052         1.416287
