19
Iteration:   190
 C         0.015869         0.075258        -0.214267
 C         1.470960         0.144959         0.025380
 O         1.968071        -1.223345        -0.064283
 C         2.383888        -0.138652        -1.061496
 C         3.496550         0.779468        -0.582824
 C         3.700999         2.084692        -1.410262
 C         2.411932         2.933428        -1.102768
 O         1.955553         2.611322         0.195816
 C         2.422998         1.310381         0.561983
 H        -0.691625        -0.286746         0.506560
 H        -0.431702         1.075260        -0.335475
 H        -0.259142        -0.462356        -1.122579
 H         2.093750        -0.432167        -2.118930
 H         4.502330         0.327771        -0.311420
 H         4.565579         2.607486        -0.946026
 H         3.859125         1.863597        -2.476178
 H         2.765155         3.983053        -1.000718
 H         1.616474         2.788777        -1.829603
 H         2.594863         1.493809         1.574388
