19
Iteration:  4081
 C        -0.046488         0.240569        -0.294079
 C         1.458483         0.158775        -0.197929
 O         2.105461        -1.109526         0.013879
 C         2.642130        -0.234286        -1.086191
 C         3.488828         0.852694        -0.537302
 C         3.586824         2.126761        -1.481691
 C         2.279428         2.837067        -1.053416
 O         1.920281         2.506589         0.373023
 C         2.384227         1.192234         0.529440
 H        -0.322166         0.501838         0.670936
 H        -0.365678         1.115892        -0.874684
 H        -0.490654        -0.741563        -0.608845
 H         2.589107        -0.759463        -2.050261
 H         4.500679         0.584169        -0.227673
 H         4.411734         2.793509        -1.238698
 H         3.623584         1.955647        -2.572403
 H         2.386613         3.882293        -1.072487
 H         1.457890         2.653060        -1.763904
 H         2.510686         1.016197         1.639197
