19
Iteration:  3635charge 0 multiplicity 1
 C        -0.027378        -0.259407        -0.081563
 C         1.306725         0.127998        -0.240793
 O         2.139010        -1.029137         0.112035
 C         2.604237        -0.322108        -1.038163
 C         3.330440         0.889497        -0.638508
 C         3.493729         2.011678        -1.531990
 C         2.870819         3.250829        -0.772728
 O         1.829988         2.687288         0.082442
 C         2.199120         1.273611         0.345615
 H        -0.363239        -0.604613         0.873367
 H        -0.670565         0.586602        -0.229671
 H        -0.370140        -1.140763        -0.792559
 H         2.552153        -0.809406        -1.968321
 H         4.165295         0.381027        -0.239176
 H         4.537569         2.116362        -1.736593
 H         3.018905         1.743433        -2.618292
 H         3.703330         3.697489        -0.229399
 H         2.419621         3.945836        -1.518115
 H         2.397155         1.344931         1.471550
