19
Iteration:   363charge 0 multiplicity 1
 C        -0.146812         0.230418        -0.196402
 C         1.378018         0.185317        -0.233650
 O         2.196999        -1.026679         0.005985
 C         2.500209        -0.254488        -1.119712
 C         3.488494         0.762140        -0.574210
 C         3.580122         2.028825        -1.353647
 C         2.349371         2.889566        -1.061706
 O         2.085160         2.577310         0.282981
 C         2.369001         1.188987         0.487351
 H        -0.529310        -0.156729         0.750923
 H        -0.596648         1.233448        -0.280831
 H        -0.660207        -0.406097        -0.942274
 H         2.448220        -0.905874        -2.031898
 H         4.407254         0.363531        -0.320494
 H         4.466667         2.621976        -1.029478
 H         3.788129         1.824834        -2.373367
 H         2.382501         3.973026        -1.005175
 H         1.487041         2.749254        -1.673029
 H         2.315232         0.971138         1.536859
