19
Iteration:  4866
 C        -0.090706         0.058327         0.020485
 C         1.408889         0.077331        -0.159383
 O         2.281832        -1.156824        -0.034677
 C         2.425415        -0.227753        -1.087987
 C         3.482978         0.791117        -0.553428
 C         3.659204         2.151361        -1.498521
 C         2.699419         3.188357        -0.774627
 O         1.667569         2.480791        -0.078355
 C         2.207244         1.202982         0.396683
 H        -0.356018         0.013492         1.069438
 H        -0.444379         1.042692        -0.448460
 H        -0.587574        -0.785048        -0.429574
 H         2.305907        -0.739050        -2.088988
 H         4.375702         0.297287        -0.076867
 H         4.681344         2.580209        -1.337789
 H         3.554829         2.021029        -2.643989
 H         3.261613         3.652617         0.134109
 H         2.278131         4.028594        -1.363640
 H         2.455817         1.240837         1.488827
