19
Iteration:  1580charge 0 multiplicity 1
 C        -0.090675        -0.112709        -0.086477
 C         1.395299         0.127806        -0.170929
 O         2.141400        -1.062032         0.070309
 C         2.446748        -0.255245        -1.104861
 C         3.423191         0.830425        -0.567286
 C         3.750262         2.127971        -1.371059
 C         2.651384         3.034505        -1.015193
 O         1.823683         2.590531         0.023915
 C         2.226056         1.313389         0.449690
 H        -0.351667        -0.558561         0.834199
 H        -0.755210         0.736897         0.015380
 H        -0.476735        -0.814975        -0.801393
 H         2.440003        -0.840007        -2.057346
 H         4.348856         0.430806        -0.061396
 H         4.658605         2.641033        -0.936162
 H         3.896978         1.969359        -2.531542
 H         3.084112         4.018808        -0.669574
 H         1.968799         3.325041        -1.812476
 H         2.345681         1.289861         1.528009
