19
Iteration:  1150charge 0 multiplicity 1
 C        -0.043155         0.014171        -0.299807
 C         1.421535         0.199573        -0.141349
 O         2.117796        -1.048874        -0.003338
 C         2.531839        -0.256025        -1.054244
 C         3.421943         0.804644        -0.505083
 C         3.650516         2.028287        -1.465061
 C         2.424309         2.907727        -1.005900
 O         1.939256         2.674191         0.299478
 C         2.325585         1.294627         0.496076
 H        -0.349242        -0.212617         0.729946
 H        -0.380468         0.962752        -0.792642
 H        -0.207011        -0.883230        -0.968351
 H         2.465746        -0.563358        -2.182909
 H         4.330886         0.367105        -0.073584
 H         4.622367         2.509716        -1.356030
 H         3.457246         1.713134        -2.550329
 H         2.555346         4.028651        -1.110201
 H         1.479545         2.619839        -1.635481
 H         2.555592         0.990985         1.544070
