19
Iteration:  4225
 C        -0.031957         0.213748        -0.213500
 C         1.470406         0.091916        -0.053679
 O         2.154183        -1.146942        -0.001823
 C         2.470381        -0.260333        -1.160279
 C         3.522775         0.871283        -0.617533
 C         3.720517         2.193761        -1.355411
 C         2.343525         3.009055        -0.977765
 O         1.756077         2.423168         0.189223
 C         2.412869         1.204092         0.517426
 H        -0.678123         0.032599         0.622434
 H        -0.175997         1.387442        -0.412440
 H        -0.473672        -0.408684        -1.035216
 H         2.244566        -0.639501        -2.184495
 H         4.429178         0.320823        -0.271630
 H         4.736551         2.670779        -1.226269
 H         3.608994         1.876866        -2.427149
 H         2.765611         4.028048        -0.817924
 H         1.690285         2.819076        -1.905163
 H         2.616137         1.048296         1.622494
