19
Iteration:   746charge 0 multiplicity 1
 C        -0.060907         0.175433        -0.131091
 C         1.347688         0.116091        -0.160324
 O         2.144244        -1.166458        -0.051944
 C         2.507436        -0.216808        -1.169613
 C         3.454255         0.821410        -0.449270
 C         3.663776         2.065049        -1.330565
 C         2.386045         2.872596        -1.118646
 O         2.030487         2.665190         0.210525
 C         2.302802         1.251410         0.486026
 H        -0.353680        -0.421158         0.701155
 H        -0.494615         1.205527        -0.027084
 H        -0.517446        -0.250126        -1.027025
 H         2.419689        -0.530665        -2.235849
 H         4.215471         0.404848         0.231292
 H         4.548570         2.656405        -1.167492
 H         3.763524         1.740427        -2.404846
 H         2.435299         4.030009        -1.236198
 H         1.632967         2.364312        -1.848759
 H         2.578984         1.244342         1.588750
