19
Iteration:  3199charge 0 multiplicity 1
 C         0.068605         0.273969        -0.231219
 C         1.497139         0.108823        -0.125140
 O         2.176933        -1.203202         0.061642
 C         2.475807        -0.237400        -1.127779
 C         3.416014         0.834876        -0.557041
 C         3.626224         2.134199        -1.308559
 C         2.288016         2.863493        -1.198029
 O         1.846373         2.547621         0.260166
 C         2.400268         1.240853         0.529735
 H        -0.423038         0.324871         0.688156
 H        -0.174203         1.154801        -0.789798
 H        -0.410145        -0.492727        -0.858211
 H         2.459101        -0.438466        -2.216410
 H         4.440466         0.554879        -0.348601
 H         4.542891         2.624513        -0.833567
 H         3.655034         2.021784        -2.476440
 H         2.571557         3.874429        -1.310542
 H         1.436089         2.537713        -1.747152
 H         2.497242         1.139195         1.597996
