19
Iteration:   395charge 0 multiplicity 1
 C        -0.082286         0.132760        -0.288693
 C         1.437630         0.124744         0.020678
 O         2.086913        -1.161464        -0.057742
 C         2.383288        -0.207488        -1.010186
 C         3.402919         0.906366        -0.526352
 C         3.621084         2.025317        -1.493425
 C         2.476834         2.969810        -1.075281
 O         1.973593         2.568632         0.271200
 C         2.458114         1.238061         0.514179
 H        -0.506761        -0.445809         0.529395
 H        -0.322722         1.192026        -0.433120
 H        -0.167494        -0.372815        -1.278610
 H         2.119916        -0.533316        -2.094433
 H         4.314382         0.528358        -0.256298
 H         4.519712         2.631511        -1.239472
 H         3.660071         1.759179        -2.508989
 H         2.794985         4.012373        -0.912190
 H         1.704015         2.855614        -1.825136
 H         2.776034         1.026319         1.550070
