19
Iteration:  3308charge 0 multiplicity 1
 C        -0.124276        -0.010973        -0.280228
 C         1.389036         0.096631        -0.190292
 O         2.156443        -1.075934         0.153417
 C         2.445310        -0.183775        -1.092974
 C         3.498172         0.836286        -0.517340
 C         3.639743         2.128567        -1.452819
 C         2.419119         2.993466        -1.047235
 O         2.016458         2.634297         0.290304
 C         2.303011         1.193311         0.425439
 H        -0.485326        -0.397462         0.665603
 H        -0.621316         0.918696        -0.471521
 H        -0.186254        -0.867843        -1.032759
 H         2.380392        -0.713934        -2.087065
 H         4.466463         0.501565        -0.319921
 H         4.644734         2.625228        -1.206394
 H         3.583811         1.932638        -2.585577
 H         2.610038         4.026901        -1.266583
 H         1.559485         2.685654        -1.713849
 H         2.674956         1.163265         1.425778
