19
Iteration:  3209charge 0 multiplicity 1
 C         0.019718         0.221146        -0.222627
 C         1.492891         0.119687        -0.117235
 O         2.175370        -1.114697         0.046341
 C         2.546608        -0.297179        -1.125815
 C         3.450128         0.828494        -0.584378
 C         3.568763         2.108684        -1.376659
 C         2.351421         2.935309        -1.122723
 O         1.840430         2.571054         0.269014
 C         2.339400         1.170938         0.522444
 H        -0.416733         0.363778         0.743545
 H        -0.113422         1.193800        -0.756082
 H        -0.426707        -0.622028        -0.741483
 H         2.401145        -0.765184        -2.108049
 H         4.281024         0.440496        -0.063896
 H         4.470734         2.688515        -1.063483
 H         3.804737         2.013282        -2.526125
 H         2.452071         4.000849        -1.191804
 H         1.753896         2.671443        -1.970663
 H         2.544869         1.108987         1.592678
