19
Iteration:  3313
 C        -0.095930         0.032243        -0.278031
 C         1.415798         0.110679        -0.187249
 O         2.157628        -1.067662         0.133781
 C         2.446541        -0.247907        -1.089895
 C         3.476946         0.858615        -0.553081
 C         3.642117         2.122714        -1.416995
 C         2.387307         2.980907        -1.092788
 O         2.004677         2.617167         0.300854
 C         2.327608         1.199038         0.427096
 H        -0.253072        -0.375982         0.753710
 H        -0.637799         0.982384        -0.531200
 H        -0.320673        -0.748827        -0.969178
 H         2.396621        -0.673870        -2.061066
 H         4.517013         0.422521        -0.256031
 H         4.556006         2.651617        -1.122291
 H         3.537843         1.972350        -2.465884
 H         2.642393         4.070413        -1.198590
 H         1.621884         2.595679        -1.748346
 H         2.374230         1.085965         1.573782
