19
Iteration:  4535
 C         0.037795         0.310541        -0.107540
 C         1.511871         0.131137        -0.088749
 O         2.116213        -1.131572        -0.186759
 C         2.532994        -0.082321        -1.110018
 C         3.467849         0.858900        -0.445295
 C         3.668609         2.117776        -1.335348
 C         2.307805         2.787699        -1.180015
 O         1.769965         2.454603         0.236166
 C         2.410045         1.139855         0.545246
 H        -0.432022        -0.162328         0.868849
 H        -0.260582         1.288033        -0.214578
 H        -0.477173        -0.295077        -0.933091
 H         2.472181        -0.306678        -2.206789
 H         4.349230         0.296586        -0.116635
 H         4.555469         2.746797        -1.020666
 H         4.028924         1.776892        -2.325361
 H         2.481108         3.911055        -1.266907
 H         1.450619         2.604800        -1.867512
 H         2.639025         1.246893         1.581164
