19
Iteration:  4808charge 0 multiplicity 1
 C        -0.103061        -0.182808        -0.146187
 C         1.356194         0.018866        -0.185416
 O         2.247673        -1.025019         0.159536
 C         2.454836        -0.234159        -1.148477
 C         3.346419         0.870581        -0.669303
 C         3.539027         2.120553        -1.598286
 C         2.917698         3.146331        -0.649558
 O         1.776034         2.570068         0.015173
 C         2.188984         1.298571         0.431397
 H        -0.647589        -0.172829         0.914313
 H        -0.595596         0.589800        -0.635652
 H        -0.389271        -1.082167        -0.702544
 H         2.456806        -0.796196        -2.046527
 H         4.294821         0.623633        -0.221487
 H         4.638097         2.307751        -1.817419
 H         3.040223         2.034244        -2.559819
 H         3.503224         3.624244         0.221544
 H         2.605518         3.930605        -1.282296
 H         2.540087         1.212598         1.548228
