19
Iteration:  2192charge 0 multiplicity 1
 C        -0.047647         0.258299        -0.137499
 C         1.457900         0.080628        -0.147927
 O         2.151004        -1.134088         0.013482
 C         2.550530        -0.253197        -1.139510
 C         3.387376         0.841729        -0.527124
 C         3.708188         2.214721        -1.268936
 C         2.383370         2.941090        -1.155601
 O         1.848775         2.449654         0.123738
 C         2.368574         1.161398         0.478167
 H        -0.465724         0.055172         0.886279
 H        -0.487161         1.286845        -0.267879
 H        -0.571449        -0.506275        -0.846403
 H         2.280179        -0.689627        -2.086886
 H         4.404938         0.556659        -0.088607
 H         4.498560         2.889925        -0.797698
 H         4.032757         1.935258        -2.250829
 H         2.570188         4.015105        -0.907723
 H         1.693029         2.901425        -1.993322
 H         2.581540         1.006417         1.563326
