19
Iteration:   200
 C        -0.049137         0.085473        -0.209269
 C         1.400057         0.124823        -0.039575
 O         2.087532        -1.124422        -0.022485
 C         2.361306        -0.075830        -1.070188
 C         3.495140         0.803046        -0.563840
 C         3.636914         2.035106        -1.348695
 C         2.434499         2.966346        -1.117844
 O         2.054665         2.567741         0.168153
 C         2.342665         1.220976         0.545030
 H        -0.445984        -0.448511         0.651350
 H        -0.314051         1.148654        -0.279980
 H        -0.224481        -0.432135        -1.154861
 H         1.980161        -0.417988        -2.116826
 H         4.397995         0.285454        -0.212780
 H         4.622398         2.495054        -1.055822
 H         3.776346         1.816757        -2.398280
 H         2.603656         4.089846        -1.188721
 H         1.656494         2.785720        -1.881878
 H         2.450168         1.109812         1.593267
