19
Iteration:  3719
 C        -0.111541         0.191142        -0.111095
 C         1.480332         0.066662        -0.032409
 O         2.221141        -1.085755         0.056388
 C         2.535371        -0.325753        -1.044556
 C         3.509932         0.825634        -0.633502
 C         3.465024         2.149011        -1.511962
 C         2.664598         3.170419        -0.702041
 O         1.705145         2.341449        -0.158036
 C         2.329249         1.254317         0.446271
 H        -0.622121         0.210231         0.906752
 H        -0.448516         1.046766        -0.678798
 H        -0.586482        -0.696773        -0.689423
 H         2.361307        -0.887355        -1.970871
 H         4.435877         0.276392        -0.309055
 H         4.539205         2.453534        -1.534535
 H         3.159754         1.891141        -2.485508
 H         3.308447         3.760086        -0.019299
 H         2.173243         3.909229        -1.377847
 H         2.612073         1.404158         1.476818
