19
Iteration:  3958
 C        -0.183369        -0.144697        -0.030427
 C         1.309587         0.063975        -0.244924
 O         2.199089        -1.045405         0.017368
 C         2.496466        -0.207670        -1.105043
 C         3.422558         0.887057        -0.525738
 C         3.705960         2.046757        -1.490314
 C         2.605701         3.127269        -1.079655
 O         1.907557         2.631789         0.199455
 C         2.265860         1.251049         0.466464
 H        -0.382349        -0.709123         0.906670
 H        -0.649033         0.768547         0.058936
 H        -0.592683        -0.628863        -0.930383
 H         2.641246        -0.635865        -2.151835
 H         4.372870         0.443705        -0.205174
 H         4.723887         2.340358        -1.056029
 H         3.742561         1.758080        -2.582304
 H         3.062391         4.063075        -0.634408
 H         1.791765         3.302964        -1.729201
 H         2.340637         1.081836         1.595599
