19
Iteration:   837
 C        -0.107384         0.103057        -0.214122
 C         1.497926         0.121984        -0.101007
 O         2.094494        -1.235311        -0.074490
 C         2.509361        -0.130619        -1.044188
 C         3.473779         0.848811        -0.443942
 C         3.616558         2.033399        -1.376422
 C         2.415866         2.979067        -1.169059
 O         1.942201         2.613195         0.169998
 C         2.375488         1.270653         0.600156
 H        -0.404156        -0.118105         0.882968
 H        -0.448413         1.131449        -0.442235
 H        -0.681589        -0.500640        -0.982461
 H         2.337637        -0.462471        -2.092552
 H         4.381469         0.344607        -0.133394
 H         4.655940         2.478577        -1.235681
 H         3.640266         1.738755        -2.471285
 H         2.665273         4.039848        -1.169848
 H         1.577592         2.775603        -1.918530
 H         2.544981         1.252328         1.649831
