19
Iteration:  2600charge 0 multiplicity 1
 C        -0.047547        -0.161189        -0.238946
 C         1.409555         0.066484        -0.193648
 O         2.223921        -1.022546         0.168738
 C         2.535973        -0.392214        -1.010537
 C         3.380451         0.837814        -0.605823
 C         3.401686         2.078113        -1.521596
 C         2.895519         3.176282        -0.640317
 O         1.754073         2.648349        -0.074703
 C         2.221624         1.311786         0.354515
 H        -0.409543         0.084455         0.740823
 H        -0.365095         0.620278        -0.997375
 H        -0.468162        -1.123149        -0.407976
 H         2.550708        -0.768786        -2.008126
 H         4.288935         0.781782         0.044831
 H         4.371149         2.127599        -2.138431
 H         2.532728         1.931908        -2.246980
 H         3.748275         3.473000         0.046058
 H         2.465411         4.024196        -1.102631
 H         2.299710         1.278717         1.464155
