19
Iteration:  3820charge 0 multiplicity 1
 C        -0.046964        -0.119095        -0.332936
 C         1.409012         0.073607        -0.124923
 O         2.230250        -1.037951         0.230114
 C         2.465563        -0.387072        -1.016643
 C         3.393001         0.819965        -0.701439
 C         3.429359         2.001260        -1.576933
 C         2.789119         3.258437        -0.769547
 O         1.820289         2.664486         0.180967
 C         2.283233         1.306596         0.370249
 H        -0.453627        -0.405445         0.610683
 H        -0.622834         0.827963        -0.609840
 H        -0.307077        -1.016885        -1.054113
 H         2.347267        -0.778452        -2.082908
 H         4.373016         0.591093        -0.238205
 H         4.329636         2.047868        -2.140976
 H         2.608993         1.823360        -2.310983
 H         3.567231         3.677196        -0.146922
 H         2.325132         3.993387        -1.518576
 H         2.587786         1.221925         1.378633
