19
Iteration:  1231charge 0 multiplicity 1
 C        -0.003435         0.282953        -0.347872
 C         1.465764         0.120495         0.011351
 O         2.171314        -1.064073         0.038275
 C         2.470863        -0.160919        -1.082536
 C         3.471184         0.871744        -0.532739
 C         3.556481         2.038678        -1.356099
 C         2.241478         2.828225        -1.111244
 O         1.943011         2.450179         0.194224
 C         2.450158         1.220327         0.528435
 H        -0.880050        -0.180322         0.253979
 H        -0.286768         1.405619        -0.369461
 H        -0.081728        -0.184469        -1.394772
 H         2.507038        -0.743825        -2.007875
 H         4.500804         0.495881        -0.258683
 H         4.325816         2.710187        -0.920414
 H         3.930690         1.863294        -2.303336
 H         2.362485         3.934014        -1.140942
 H         1.434926         2.585560        -1.786691
 H         2.761926         0.959639         1.534004
