19
Iteration:   571charge 0 multiplicity 1
 C        -0.104959         0.220399        -0.162912
 C         1.397071         0.219919        -0.171311
 O         2.039383        -1.035890         0.078857
 C         2.572940        -0.291251        -1.156548
 C         3.491949         0.808582        -0.560378
 C         3.614751         2.131935        -1.384218
 C         2.373316         2.893606        -1.082080
 O         2.015906         2.476507         0.224710
 C         2.377274         1.161327         0.461493
 H        -0.462783        -0.501339         0.598024
 H        -0.514786         1.266369         0.077477
 H        -0.312806        -0.178103        -1.179408
 H         2.515251        -0.867772        -2.053283
 H         4.505907         0.557128        -0.305211
 H         4.495570         2.658843        -0.970097
 H         3.773757         1.995528        -2.467176
 H         2.555031         3.997511        -1.070681
 H         1.489436         2.722594        -1.713199
 H         2.635320         1.008586         1.530420
