19
Iteration:  3613charge 0 multiplicity 1
 C        -0.116530        -0.170572        -0.226702
 C         1.368542         0.068735        -0.105826
 O         2.259401        -1.108069         0.174742
 C         2.473961        -0.347362        -1.051198
 C         3.420660         0.868406        -0.570219
 C         3.464358         2.142753        -1.608559
 C         2.846338         3.215834        -0.804053
 O         1.873143         2.641883         0.028836
 C         2.208643         1.311997         0.415242
 H        -0.534356        -0.586955         0.693683
 H        -0.727700         0.708433        -0.355969
 H        -0.539226        -0.980619        -0.949491
 H         2.273315        -0.814930        -1.998061
 H         4.383776         0.552594        -0.201840
 H         4.429150         2.153904        -2.059653
 H         2.679285         1.953125        -2.489212
 H         3.595753         3.530270        -0.085206
 H         2.411215         4.083247        -1.336981
 H         2.154109         1.233047         1.569869
