19
Iteration:   723
 C        -0.026697         0.156430        -0.234014
 C         1.354429         0.235257        -0.048783
 O         2.099990        -1.088622        -0.045921
 C         2.501567        -0.079278        -1.092723
 C         3.524289         0.784828        -0.509312
 C         3.635841         2.020765        -1.414445
 C         2.380206         2.840532        -1.129910
 O         1.891557         2.502255         0.226953
 C         2.439093         1.232157         0.602192
 H        -0.506198        -0.063896         0.672918
 H        -0.420472         1.138729        -0.551742
 H        -0.357217        -0.530974        -0.978297
 H         2.302226        -0.370662        -2.174507
 H         4.447611         0.157003        -0.285847
 H         4.470957         2.690900        -1.205442
 H         3.788049         1.792673        -2.480149
 H         2.805592         3.938838        -1.078727
 H         1.633150         2.621460        -2.013373
 H         2.498646         1.163386         1.758788
