19
Iteration:   507charge 0 multiplicity 1
 C        -0.050730         0.188215        -0.201054
 C         1.467212         0.166537        -0.011597
 O         2.109193        -1.095209        -0.083286
 C         2.343031        -0.049765        -1.141854
 C         3.549551         0.801447        -0.518370
 C         3.677289         2.019578        -1.370067
 C         2.359514         2.835244        -1.155624
 O         1.956099         2.533725         0.244349
 C         2.427322         1.200005         0.596969
 H        -0.686257         0.051084         0.710840
 H        -0.520266         1.040140        -0.815252
 H        -0.510008        -0.686751        -0.796718
 H         1.978841        -0.178168        -2.138753
 H         4.308954         0.083400        -0.357755
 H         4.528491         2.609865        -0.984343
 H         3.990384         2.006506        -2.449526
 H         2.567473         3.930567        -1.175176
 H         1.653143         2.411904        -1.989680
 H         2.604462         1.224594         1.674304
