19
Iteration:  2047
 C         0.039116         0.233454        -0.329649
 C         1.482615         0.134931        -0.107423
 O         2.131653        -1.133234        -0.017664
 C         2.584442        -0.242586        -1.053319
 C         3.535779         0.854970        -0.396181
 C         3.463243         2.017602        -1.459565
 C         2.349747         2.986258        -1.078283
 O         1.857585         2.516615         0.215379
 C         2.363124         1.183288         0.570742
 H        -0.491239         0.639583         0.606860
 H        -0.179563         1.145272        -1.036681
 H        -0.235627        -0.748260        -0.657177
 H         2.470951        -0.508596        -2.126977
 H         4.540751         0.593996        -0.129102
 H         4.435208         2.438429        -1.376076
 H         3.288417         1.521158        -2.449427
 H         2.739636         4.041683        -0.971139
 H         1.636668         2.978463        -1.864638
 H         2.382512         1.187309         1.721095
