19
Iteration:  1379charge 0 multiplicity 1
 C        -0.044779         0.090246        -0.121635
 C         1.383967         0.178130        -0.249756
 O         2.129035        -1.062774         0.067691
 C         2.581443        -0.228710        -1.109875
 C         3.508771         0.813484        -0.469009
 C         3.650982         2.056069        -1.436293
 C         2.437237         2.977447        -1.073012
 O         1.874451         2.551889         0.165016
 C         2.230893         1.188171         0.448526
 H        -0.209598        -0.298132         0.882365
 H        -0.589815         1.012544        -0.210370
 H        -0.596249        -0.540123        -0.845354
 H         2.769571        -0.733801        -2.001811
 H         4.427343         0.576341         0.033514
 H         4.551510         2.604618        -1.097544
 H         3.817170         1.883860        -2.576222
 H         2.983438         3.912436        -0.894487
 H         1.703871         3.106626        -1.824161
 H         2.333091         1.195470         1.570686
