19
Iteration:  2555
 C        -0.106903        -0.066932        -0.267287
 C         1.418023         0.080251        -0.077917
 O         2.217310        -1.033031         0.173122
 C         2.528644        -0.404276        -1.046009
 C         3.443408         0.852845        -0.589425
 C         3.456800         2.099741        -1.589275
 C         2.833620         3.217946        -0.768126
 O         1.761694         2.542580         0.015452
 C         2.209539         1.323535         0.435289
 H        -0.700463        -0.489846         0.499194
 H        -0.435380         0.917177        -0.631132
 H        -0.259925        -0.800411        -1.058102
 H         2.492892        -1.143670        -1.891105
 H         4.450829         0.532773        -0.231945
 H         4.483698         2.432966        -1.805704
 H         2.852841         1.802331        -2.474742
 H         3.406951         3.725722         0.009727
 H         2.428210         3.885767        -1.470678
 H         2.446785         1.195759         1.501074
