19
Iteration:   691charge 0 multiplicity 1
 C        -0.030386         0.258908        -0.241850
 C         1.408616         0.102453        -0.071041
 O         2.123551        -1.142321        -0.016652
 C         2.451060        -0.323341        -1.049344
 C         3.452181         0.814913        -0.629778
 C         3.624106         2.148775        -1.388042
 C         2.390756         2.900149        -1.132206
 O         1.962435         2.597629         0.278864
 C         2.372801         1.186017         0.537830
 H        -0.524822         0.549432         0.662224
 H        -0.102484         1.014456        -1.067423
 H        -0.386969        -0.673129        -0.691093
 H         2.491199        -0.613291        -2.118050
 H         4.317903         0.324536        -0.169617
 H         4.438316         2.679435        -0.891363
 H         3.941597         1.982066        -2.441479
 H         2.403260         4.013343        -0.969936
 H         1.569104         2.644190        -1.806299
 H         2.679576         1.180053         1.624901
