19
Iteration:  3529charge 0 multiplicity 1
 C        -0.084410         0.116110        -0.259998
 C         1.453532         0.142058        -0.172622
 O         2.235378        -1.147545         0.121980
 C         2.581390        -0.378391        -0.970663
 C         3.524970         0.837604        -0.561556
 C         3.374406         2.044176        -1.627357
 C         2.624133         3.155464        -0.875263
 O         1.794891         2.555700         0.159138
 C         2.251159         1.205188         0.434949
 H        -0.290658         0.400385         0.813741
 H        -0.315371         0.949821        -0.928065
 H        -0.602616        -0.769205        -0.632709
 H         2.637315        -0.849298        -1.929759
 H         4.553414         0.718036        -0.118027
 H         4.432913         2.287961        -1.736562
 H         2.949353         1.906819        -2.589996
 H         3.307901         3.854600        -0.318601
 H         2.062417         3.815521        -1.572098
 H         2.308567         1.125802         1.535915
