19
Iteration:   544
 C        -0.087723         0.280865        -0.080151
 C         1.452238         0.185814        -0.266570
 O         2.070484        -1.165203        -0.024586
 C         2.532029        -0.346390        -1.172733
 C         3.527334         0.766344        -0.480947
 C         3.650019         2.113705        -1.353462
 C         2.361574         2.896799        -1.101947
 O         1.957462         2.616474         0.275876
 C         2.349856         1.232544         0.430149
 H        -0.297175        -0.177589         0.876305
 H        -0.355361         1.285022         0.054348
 H        -0.523995        -0.215608        -0.917898
 H         2.498361        -0.779209        -2.210290
 H         4.556442         0.459243        -0.098663
 H         4.505016         2.633288        -0.902225
 H         3.748856         1.923212        -2.441523
 H         2.278727         3.943848        -1.326868
 H         1.494779         2.506228        -1.635950
 H         2.457776         1.088588         1.518465
