19
Iteration:  4288
 C        -0.027334        -0.031062        -0.075345
 C         1.380825         0.228722        -0.257323
 O         2.091061        -1.072268        -0.151367
 C         2.494916        -0.084211        -1.128025
 C         3.437082         0.901331        -0.506981
 C         3.769610         2.126641        -1.278641
 C         2.355842         2.772656        -1.122485
 O         2.071218         2.569365         0.265954
 C         2.228114         1.217823         0.508696
 H        -0.076556        -0.158679         0.967786
 H        -0.692932         0.889894        -0.291671
 H        -0.498050        -0.880007        -0.694368
 H         2.558071        -0.201668        -2.193361
 H         4.260934         0.361366        -0.016784
 H         4.547931         2.837693        -0.933643
 H         3.960099         1.875344        -2.385431
 H         2.086641         3.809550        -1.344942
 H         1.590816         2.251070        -1.666521
 H         2.237089         1.128586         1.671776
