19
Iteration:    41
 C        -0.035591         0.207844        -0.150962
 C         1.376645         0.101024        -0.228351
 O         2.038458        -1.081339         0.076468
 C         2.538979        -0.324126        -1.146899
 C         3.439139         0.818198        -0.505209
 C         3.609481         2.116512        -1.410620
 C         2.436922         3.001268        -1.032247
 O         2.084277         2.545110         0.224497
 C         2.287421         1.180296         0.370270
 H        -0.216478        -0.247885         0.867052
 H        -0.395143         1.243039        -0.121629
 H        -0.756949        -0.242698        -0.847512
 H         2.613861        -0.923541        -2.002364
 H         4.352277         0.594166         0.046383
 H         4.520839         2.592420        -1.101312
 H         3.718330         1.897071        -2.511581
 H         2.611698         4.062790        -1.011101
 H         1.589989         2.876338        -1.778502
 H         2.397234         0.958488         1.521461
