19
Iteration:  4597
 C        -0.098306        -0.083984        -0.103123
 C         1.348708         0.181816        -0.145005
 O         2.159078        -1.019945        -0.023813
 C         2.405533        -0.185865        -1.169144
 C         3.460542         0.812470        -0.608135
 C         3.729043         2.161579        -1.306120
 C         2.481800         2.939457        -1.054505
 O         2.011822         2.592117         0.215006
 C         2.248008         1.242343         0.452268
 H        -0.267144        -0.495538         0.853909
 H        -0.734447         0.802207        -0.218468
 H        -0.202756        -0.875933        -0.855143
 H         2.281852        -0.599829        -2.186807
 H         4.350126         0.272682        -0.318138
 H         4.511550         2.841019        -0.931130
 H         3.818485         1.899590        -2.371834
 H         2.881646         3.971941        -1.004287
 H         1.710293         2.772795        -1.729406
 H         2.246992         0.896156         1.535893
