19
Iteration:  2987
 C        -0.068428         0.069015        -0.211700
 C         1.401801         0.027344        -0.067783
 O         2.175808        -1.094638         0.084931
 C         2.508866        -0.259033        -1.066533
 C         3.462243         0.892377        -0.579924
 C         3.555430         2.133508        -1.526041
 C         2.555705         3.100393        -0.943776
 O         1.819119         2.528092         0.142298
 C         2.326248         1.164537         0.446448
 H        -0.553646         0.008998         0.767804
 H        -0.313234         0.952172        -0.702315
 H        -0.306519        -0.683742        -0.935550
 H         2.339525        -0.678977        -2.072911
 H         4.340990         0.514578        -0.155381
 H         4.514152         2.588690        -1.254867
 H         3.663827         1.590395        -2.586008
 H         3.227647         3.816579        -0.460702
 H         1.946560         3.552474        -1.711747
 H         2.546121         1.307002         1.499489
