19
Iteration:  4098charge 0 multiplicity 1
 C        -0.038470         0.130231        -0.370736
 C         1.408553         0.091478        -0.184375
 O         2.144513        -1.066696         0.155572
 C         2.494970        -0.224349        -1.096906
 C         3.506432         0.867078        -0.586966
 C         3.521116         2.115640        -1.397009
 C         2.272234         3.009948        -0.966117
 O         2.099954         2.528488         0.306797
 C         2.352388         1.154767         0.426365
 H        -0.707622         0.333983         0.614800
 H        -0.330158         0.832068        -1.151883
 H        -0.265312        -0.830685        -0.849622
 H         2.481467        -0.780024        -2.108364
 H         4.480658         0.515951        -0.207153
 H         4.486791         2.692196        -1.246986
 H         3.341724         1.863390        -2.461865
 H         2.463219         4.145549        -0.850357
 H         1.583925         2.665305        -1.827443
 H         2.586547         0.882191         1.442444
