19
Iteration:  1232
 C         0.001356         0.286661        -0.341343
 C         1.456351         0.115036         0.014171
 O         2.178327        -1.065880         0.034134
 C         2.464303        -0.155961        -1.081367
 C         3.470165         0.886835        -0.529128
 C         3.556852         2.034191        -1.353302
 C         2.246733         2.823940        -1.114822
 O         1.938154         2.457170         0.191881
 C         2.450195         1.205485         0.527988
 H        -0.880868        -0.157351         0.252129
 H        -0.317673         1.404379        -0.394968
 H        -0.110410        -0.163632        -1.377560
 H         2.559576        -0.742976        -2.038472
 H         4.494415         0.490121        -0.274018
 H         4.320622         2.747996        -0.936798
 H         3.955387         1.830402        -2.313423
 H         2.364383         3.894229        -1.161100
 H         1.464151         2.585019        -1.757544
 H         2.769239         0.938423         1.556752
