19
Iteration:  2950
 C        -0.024309         0.074040        -0.233663
 C         1.438878         0.086404        -0.119641
 O         2.182668        -1.103399         0.111751
 C         2.518178        -0.304356        -1.046889
 C         3.429247         0.823502        -0.547873
 C         3.513840         2.071079        -1.514449
 C         2.575159         3.110710        -0.955022
 O         1.797181         2.573230         0.145524
 C         2.347988         1.227324         0.432591
 H        -0.539142        -0.576712         0.491589
 H        -0.382758         1.151167        -0.217594
 H        -0.392229        -0.445261        -1.185306
 H         2.373638        -0.670636        -2.082614
 H         4.444759         0.607372        -0.054507
 H         4.511997         2.556947        -1.545843
 H         3.270587         1.847428        -2.547373
 H         3.317359         3.782765        -0.406568
 H         1.887758         3.622088        -1.622645
 H         2.472190         0.985542         1.506397
