19
Iteration:  4363charge 0 multiplicity 1
 C        -0.046231         0.201874        -0.252802
 C         1.458376         0.130627        -0.143108
 O         2.222748        -1.130890         0.029630
 C         2.515912        -0.346195        -1.045087
 C         3.463987         0.810290        -0.660138
 C         3.555127         2.082655        -1.413728
 C         2.450723         3.127937        -0.886553
 O         1.790816         2.465797         0.191490
 C         2.391484         1.241155         0.436800
 H        -0.481007        -0.110778         0.689672
 H        -0.420214         1.157159        -0.391650
 H        -0.491840        -0.489339        -1.059666
 H         2.420775        -0.799475        -2.026361
 H         4.402751         0.254778        -0.448479
 H         4.468089         2.464137        -0.995341
 H         3.627217         2.200164        -2.505429
 H         2.836464         4.036480        -0.417058
 H         1.673846         3.309397        -1.705701
 H         2.507339         1.077571         1.527194
