19
Iteration:  3150
 C         0.007978         0.173544        -0.199273
 C         1.452599         0.196883        -0.205021
 O         2.104931        -1.080457        -0.064773
 C         2.493837        -0.098326        -1.094012
 C         3.576072         0.855499        -0.497256
 C         3.710686         2.049532        -1.347041
 C         2.162175         2.705753        -1.119395
 O         1.961548         2.589720         0.228095
 C         2.375940         1.206975         0.555594
 H        -0.159388        -0.233087         0.874288
 H        -0.523244         1.185073        -0.211609
 H        -0.569554        -0.421348        -0.961890
 H         2.476044        -0.508215        -2.099248
 H         4.328904         0.396568         0.175280
 H         4.440608         2.725815        -0.908756
 H         3.863452         1.836141        -2.445008
 H         2.122733         3.809328        -1.390519
 H         1.520115         2.066685        -1.804630
 H         2.324041         1.364050         1.663043
