19
Iteration:  2210
 C        -0.135735         0.238486        -0.165615
 C         1.422323         0.072459        -0.160029
 O         2.242836        -1.121410         0.020244
 C         2.431193        -0.333694        -1.114467
 C         3.553924         0.803680        -0.617370
 C         3.731486         2.195347        -1.259687
 C         2.367722         2.948164        -1.068477
 O         1.821943         2.533906         0.189274
 C         2.332840         1.170385         0.437677
 H        -0.572965         0.375883         0.853303
 H        -0.225497         1.321773        -0.550578
 H        -0.671901        -0.444244        -0.747127
 H         2.660639        -0.833365        -2.081676
 H         4.480052         0.378589        -0.274759
 H         4.448064         2.571031        -0.594240
 H         3.982133         2.294947        -2.345507
 H         2.401204         4.076560        -1.164659
 H         1.699296         2.594988        -1.932424
 H         2.549759         1.361656         1.490607
