19
Iteration:  3780charge 0 multiplicity 1
 C        -0.180760        -0.186446        -0.233228
 C         1.350399         0.095524        -0.107077
 O         2.187978        -1.105127         0.098012
 C         2.536050        -0.212890        -1.045337
 C         3.441849         0.880206        -0.499622
 C         3.485356         2.017295        -1.561851
 C         2.788365         3.254599        -0.886818
 O         1.894327         2.610023         0.112667
 C         2.303371         1.281797         0.406006
 H        -0.450500        -0.633000         0.744575
 H        -0.703312         0.775424        -0.462151
 H        -0.356365        -0.935479        -0.912291
 H         2.209444        -0.724620        -1.973637
 H         4.413016         0.487944        -0.171267
 H         4.492960         2.213223        -2.016075
 H         2.763782         1.717107        -2.392122
 H         3.335692         4.109176        -0.415614
 H         2.005177         3.619884        -1.524168
 H         2.513940         1.181330         1.518477
