19
Iteration:  2280
 C        -0.068643         0.017282        -0.330045
 C         1.403485         0.155587        -0.180076
 O         2.134455        -1.049092        -0.068769
 C         2.486666        -0.170846        -1.050535
 C         3.457344         0.850406        -0.438756
 C         3.636685         2.069592        -1.421285
 C         2.332998         2.856967        -1.103401
 O         2.083093         2.692227         0.293484
 C         2.302886         1.232681         0.588507
 H        -0.412140        -0.150524         0.712050
 H        -0.394980         1.001790        -0.616932
 H        -0.275309        -0.926411        -1.006826
 H         2.574558        -0.706422        -1.952539
 H         4.379432         0.310574         0.007018
 H         4.551517         2.582576        -1.249084
 H         3.544632         1.562397        -2.316111
 H         2.374495         3.952809        -1.235121
 H         1.442579         2.501453        -1.684966
 H         2.356232         0.899466         1.606785
