19
Iteration:  3501
 C        -0.042930        -0.100420        -0.308856
 C         1.422894         0.165178        -0.078865
 O         2.168354        -1.052402         0.094418
 C         2.463578        -0.281354        -1.063550
 C         3.426503         0.858105        -0.500050
 C         3.462080         2.026611        -1.565479
 C         2.605044         3.139652        -0.938819
 O         1.922511         2.570879         0.172960
 C         2.327474         1.249711         0.472747
 H        -0.456167        -0.028625         0.677012
 H        -0.375641         0.808940        -0.884093
 H        -0.370007        -1.028792        -0.787328
 H         2.315846        -0.720703        -2.117258
 H         4.339867         0.694466         0.097457
 H         4.589199         2.272972        -1.634102
 H         2.999607         1.769543        -2.566674
 H         3.199525         3.950114        -0.517145
 H         1.893749         3.497364        -1.680947
 H         2.666751         1.245259         1.563545
