19
Iteration:  1591charge 0 multiplicity 1
 C        -0.167665        -0.150052         0.012487
 C         1.328161         0.182351        -0.204705
 O         2.142517        -1.035554         0.035468
 C         2.555056        -0.229864        -1.098214
 C         3.411247         0.835383        -0.537042
 C         3.760062         2.071811        -1.359463
 C         2.618435         3.135388        -1.076408
 O         1.826260         2.539086         0.039777
 C         2.226194         1.265365         0.466404
 H        -0.206340        -0.640351         0.915865
 H        -0.524921         0.832379        -0.196035
 H        -0.456007        -0.679244        -0.860203
 H         2.717751        -0.657463        -2.114530
 H         4.281236         0.267840        -0.062398
 H         4.816546         2.366755        -1.013746
 H         3.886152         1.962610        -2.565038
 H         3.061080         4.089607        -0.660958
 H         2.078125         3.277217        -2.003654
 H         2.290485         1.248058         1.545382
