19
Iteration:  2865
 C        -0.103908        -0.025906        -0.285768
 C         1.381449         0.072284        -0.059895
 O         2.236022        -1.054117         0.167913
 C         2.496264        -0.312949        -0.996265
 C         3.408623         0.846146        -0.647482
 C         3.452240         2.033192        -1.601362
 C         2.741704         3.235969        -0.683147
 O         1.818428         2.526196        -0.018878
 C         2.301521         1.259228         0.395504
 H        -0.681565         0.050707         0.628531
 H        -0.412869         0.726601        -0.906782
 H        -0.228187        -1.044327        -0.759016
 H         2.675497        -1.063009        -1.840825
 H         4.425084         0.547272        -0.331874
 H         4.518638         2.383080        -1.892285
 H         2.679779         2.111722        -2.507147
 H         3.563389         3.587537        -0.084223
 H         2.286667         4.111543        -1.016621
 H         2.396456         1.184368         1.494496
