19
Iteration:  4742
 C        -0.075153         0.033495        -0.336414
 C         1.448618         0.163246        -0.140451
 O         2.223083        -1.084407         0.079701
 C         2.540775        -0.289198        -1.012415
 C         3.430856         0.914374        -0.530845
 C         3.224627         1.950248        -1.576762
 C         2.814316         3.111389        -0.761996
 O         1.817103         2.520418         0.133970
 C         2.348930         1.241986         0.461741
 H        -0.605404        -0.408778         0.606274
 H        -0.515395         0.918705        -0.619283
 H        -0.095262        -0.730627        -1.128436
 H         2.573538        -0.479089        -2.071912
 H         4.449050         0.790425        -0.198400
 H         4.132388         2.300897        -2.160394
 H         2.457679         1.865704        -2.360423
 H         3.667947         3.761833        -0.313555
 H         2.315406         3.782827        -1.385958
 H         2.413046         1.156681         1.613497
