19
Iteration:  3053
 C        -0.099586        -0.021073        -0.158011
 C         1.403402         0.106332        -0.103157
 O         2.195704        -1.131027         0.028671
 C         2.480603        -0.255625        -1.073803
 C         3.439166         0.878838        -0.517363
 C         3.686611         2.116325        -1.484813
 C         2.614324         3.122600        -0.970392
 O         1.845122         2.594265         0.113282
 C         2.222908         1.187653         0.476580
 H        -0.584432         0.129525         0.814301
 H        -0.613900         0.749904        -0.742488
 H        -0.366695        -0.961842        -0.581822
 H         2.470211        -0.865534        -1.976419
 H         4.378253         0.446969        -0.274927
 H         4.634860         2.649895        -1.479305
 H         3.186013         1.843679        -2.518266
 H         3.030901         4.128216        -0.705881
 H         1.858938         3.329182        -1.702600
 H         2.616417         0.963078         1.498579
