19
Iteration:  1731
 C         0.013193         0.188246        -0.392498
 C         1.458346         0.202193        -0.145506
 O         2.067880        -1.048811        -0.010374
 C         2.583590        -0.221019        -0.976438
 C         3.572474         0.860107        -0.472528
 C         3.554697         1.991442        -1.468487
 C         2.245299         2.851136        -1.050166
 O         1.953758         2.534628         0.280724
 C         2.389743         1.238300         0.556109
 H        -0.561813         0.008812         0.650195
 H        -0.357897         1.238926        -0.750052
 H        -0.396085        -0.500743        -1.130829
 H         2.652888        -0.579964        -2.006180
 H         4.563363         0.641259        -0.034419
 H         4.609128         2.334787        -1.455672
 H         3.420557         1.613847        -2.461721
 H         2.185901         3.974483        -1.128510
 H         1.406388         2.428018        -1.637776
 H         2.559615         1.188897         1.660733
