19
Iteration:  1034
 C         0.001572         0.115699        -0.206017
 C         1.412359         0.109299        -0.075211
 O         2.151132        -1.158312        -0.109641
 C         2.416233        -0.132074        -1.082388
 C         3.409389         0.888014        -0.438346
 C         3.702059         2.077394        -1.302365
 C         2.362105         2.815454        -1.203213
 O         1.978878         2.622989         0.216764
 C         2.357466         1.290762         0.546522
 H        -0.477724        -0.533194         0.500292
 H        -0.342696         1.106373        -0.127905
 H        -0.354423        -0.390202        -1.120701
 H         2.031220        -0.443696        -2.082963
 H         4.332138         0.399627        -0.067504
 H         4.561713         2.705571        -0.988220
 H         3.807284         1.677385        -2.288036
 H         2.590419         3.870839        -1.510001
 H         1.491023         2.306622        -1.853747
 H         2.583661         1.339405         1.589391
