19
Iteration:   988charge 0 multiplicity 1
 C        -0.055892         0.160707        -0.198060
 C         1.406124         0.136243        -0.212113
 O         2.071259        -1.098985         0.147421
 C         2.510899        -0.366753        -1.104852
 C         3.466321         0.840102        -0.569658
 C         3.680197         2.223816        -1.379671
 C         2.391478         2.942342        -1.114815
 O         1.996890         2.575411         0.245185
 C         2.363944         1.183373         0.417544
 H        -0.535237        -0.563132         0.426871
 H        -0.487246         1.160326        -0.055519
 H        -0.485485        -0.237526        -1.155265
 H         2.565691        -0.861154        -2.157379
 H         4.381811         0.601303         0.019278
 H         4.538668         2.660029        -0.985789
 H         3.744795         2.067722        -2.461016
 H         2.247707         4.108157        -1.080849
 H         1.536536         2.484329        -1.736544
 H         2.483195         0.965049         1.478919
