19
Iteration:  4448
 C        -0.089027        -0.023343        -0.393424
 C         1.370602         0.146709        -0.162058
 O         2.112868        -0.985332         0.131146
 C         2.537089        -0.232278        -1.134438
 C         3.409883         0.879909        -0.626385
 C         3.583478         2.155314        -1.507797
 C         2.374805         2.926443        -0.906976
 O         2.115392         2.539189         0.389765
 C         2.364578         1.187298         0.464084
 H        -0.728148        -0.220027         0.607205
 H        -0.437855         0.795345        -0.905111
 H        -0.264373        -1.004491        -0.959847
 H         2.297723        -0.712216        -2.045531
 H         4.351754         0.417167        -0.301862
 H         4.406537         2.760089        -1.177129
 H         3.606613         2.090190        -2.574032
 H         2.634725         3.976353        -0.970190
 H         1.565545         2.965426        -1.625559
 H         2.538627         1.038803         1.463687
