19
Iteration:   635charge 0 multiplicity 1
 C        -0.145646         0.113439        -0.243630
 C         1.442790         0.198009        -0.204309
 O         1.993862        -1.079787         0.022393
 C         2.518327        -0.206904        -1.067892
 C         3.573443         0.832557        -0.573456
 C         3.649222         2.064750        -1.464056
 C         2.377382         2.876662        -1.031318
 O         2.002692         2.563271         0.312658
 C         2.413685         1.245211         0.534133
 H        -0.623727         0.081051         0.715362
 H        -0.655486         0.902644        -0.784817
 H        -0.327858        -0.837063        -0.732468
 H         2.553568        -0.537283        -2.087092
 H         4.581635         0.536656        -0.242941
 H         4.546662         2.673135        -1.275609
 H         3.627545         1.710165        -2.480309
 H         2.438644         3.994709        -1.122011
 H         1.604014         2.628215        -1.739909
 H         2.593860         1.074436         1.632238
