19
Iteration:  1087charge 0 multiplicity 1
 C         0.030245         0.174353        -0.108216
 C         1.462417         0.152257        -0.259547
 O         2.147106        -1.034769         0.065697
 C         2.536817        -0.128551        -1.221623
 C         3.445749         0.765685        -0.521876
 C         3.745982         2.123235        -1.282706
 C         2.368432         2.823005        -1.125914
 O         1.835230         2.509015         0.228763
 C         2.241732         1.213121         0.435956
 H        -0.310011         0.417013         0.949664
 H        -0.406521         1.073744        -0.584857
 H        -0.613580        -0.766328        -0.362202
 H         2.438342        -0.746383        -2.189058
 H         4.390482         0.185528        -0.350758
 H         4.543789         2.587252        -0.748881
 H         4.004660         1.995889        -2.325267
 H         2.545006         3.960668        -1.147473
 H         1.627082         2.492101        -1.823295
 H         2.319425         1.181189         1.506872
