19
Iteration:  3468charge 0 multiplicity 1
 C        -0.115488        -0.150727        -0.280298
 C         1.390876         0.062256        -0.115025
 O         2.163839        -1.071158         0.129960
 C         2.467826        -0.269111        -1.130478
 C         3.390214         0.817906        -0.582926
 C         3.607009         2.070404        -1.500899
 C         2.584477         3.116121        -0.976913
 O         1.939639         2.694168         0.262239
 C         2.342967         1.303313         0.441766
 H        -0.560963        -0.403406         0.665707
 H        -0.596647         0.862885        -0.342816
 H        -0.484185        -0.869158        -0.999949
 H         2.353516        -0.950531        -2.034382
 H         4.322593         0.565579        -0.061614
 H         4.719640         2.360880        -1.497973
 H         3.405283         1.815517        -2.578426
 H         2.978176         4.137059        -0.832815
 H         1.841766         3.221493        -1.763413
 H         2.584783         1.339784         1.544013
