19
Iteration:  3273
 C        -0.043147        -0.151887        -0.303390
 C         1.362344         0.207619        -0.177206
 O         2.203063        -1.144296         0.111751
 C         2.437396        -0.215003        -1.077388
 C         3.405849         0.790285        -0.528798
 C         3.516528         2.067684        -1.455553
 C         2.514740         3.089841        -1.055800
 O         2.077173         2.741852         0.274390
 C         2.278396         1.270004         0.498764
 H        -0.506773        -0.471098         0.638371
 H        -0.770902         0.590694        -0.824522
 H        -0.174820        -0.986444        -1.004005
 H         2.188546        -0.650778        -2.039695
 H         4.321861         0.403584        -0.133851
 H         4.497249         2.455062        -1.310253
 H         3.511503         1.688686        -2.509536
 H         2.839545         4.139120        -0.970309
 H         1.569690         3.020191        -1.695132
 H         2.615185         1.003669         1.502435
