19
Iteration:  3458charge 0 multiplicity 1
 C        -0.057915        -0.096739        -0.185852
 C         1.369293         0.082757        -0.198930
 O         2.176601        -1.032024         0.103701
 C         2.459672        -0.328434        -1.032260
 C         3.370795         0.850308        -0.574209
 C         3.604982         2.066382        -1.440830
 C         2.555883         3.126927        -1.014894
 O         1.984526         2.635010         0.243906
 C         2.292748         1.305289         0.378705
 H        -0.369049        -0.587986         0.717573
 H        -0.489789         0.899432        -0.453280
 H        -0.338243        -0.669474        -1.110246
 H         2.319751        -0.746423        -2.082237
 H         4.287460         0.382344        -0.284809
 H         4.574133         2.486570        -1.214764
 H         3.583377         1.745709        -2.499943
 H         2.952954         4.141494        -0.897530
 H         1.686655         3.169674        -1.674116
 H         2.304602         0.905394         1.393909
