19
Iteration:  3787charge 0 multiplicity 1
 C        -0.108792        -0.221973        -0.253628
 C         1.347252         0.091274        -0.073922
 O         2.158600        -1.024369         0.087800
 C         2.522387        -0.234059        -0.973502
 C         3.397832         0.875928        -0.570321
 C         3.513075         2.034100        -1.572986
 C         2.747638         3.196789        -0.891348
 O         1.957041         2.573339         0.119374
 C         2.268176         1.283180         0.455757
 H        -0.492423        -0.596088         0.660310
 H        -0.779832         0.637197        -0.487594
 H        -0.408065        -0.981455        -1.129513
 H         2.196491        -0.586116        -2.010929
 H         4.442596         0.723222        -0.280831
 H         4.446337         2.234769        -2.036877
 H         2.760401         1.792653        -2.394329
 H         3.456666         3.926211        -0.416056
 H         2.090257         3.943509        -1.517091
 H         2.423873         1.266841         1.492575
