19
Iteration:  2374
 C        -0.066074         0.166997        -0.252405
 C         1.467494         0.121902        -0.180282
 O         2.108789        -1.129465        -0.073098
 C         2.545486        -0.156407        -1.093967
 C         3.505892         0.920207        -0.386920
 C         3.667056         2.013063        -1.397752
 C         2.333970         2.824827        -1.097410
 O         1.913871         2.602801         0.218748
 C         2.356075         1.194053         0.584984
 H        -0.405872        -0.163913         0.732177
 H        -0.354406         1.225618        -0.379404
 H        -0.459366        -0.452260        -0.978834
 H         2.405753        -0.535897        -2.081161
 H         4.484771         0.569692        -0.013349
 H         4.385646         2.823220        -1.148552
 H         3.631928         1.643714        -2.485614
 H         2.510033         3.886893        -1.386499
 H         1.559610         2.472095        -1.754140
 H         2.396430         1.384304         1.681958
