19
Iteration:  1924charge 0 multiplicity 1
 C        -0.096530         0.175671        -0.128347
 C         1.449310         0.124785        -0.147104
 O         2.193830        -1.234443        -0.100847
 C         2.515559        -0.152610        -1.103003
 C         3.470094         0.813898        -0.403543
 C         3.717783         2.095014        -1.293549
 C         2.384450         2.904435        -1.133068
 O         1.880760         2.636480         0.138903
 C         2.282484         1.244507         0.484342
 H        -0.371996        -0.429835         0.753040
 H        -0.366052         1.251693        -0.171227
 H        -0.515907        -0.446519        -1.022400
 H         2.642493        -0.676698        -2.046634
 H         4.414057         0.524828         0.004282
 H         4.510674         2.722838        -1.042173
 H         3.741077         1.675687        -2.340273
 H         2.405065         3.975825        -1.217308
 H         1.580328         2.607144        -1.790482
 H         2.324176         1.337717         1.582256
