19
Iteration:   628
 C        -0.050054         0.084849        -0.256459
 C         1.411890         0.191746        -0.132851
 O         2.024702        -1.097361        -0.010939
 C         2.477387        -0.180037        -1.074934
 C         3.526392         0.751697        -0.493033
 C         3.646538         2.050599        -1.408522
 C         2.303141         2.961184        -1.046571
 O         2.046908         2.592913         0.266054
 C         2.412200         1.252778         0.527554
 H        -0.657155        -0.048457         0.717708
 H        -0.522168         0.970137        -0.899735
 H        -0.440952        -0.731774        -0.954639
 H         2.333541        -0.497499        -2.132233
 H         4.567997         0.520622        -0.244477
 H         4.555321         2.671903        -1.440939
 H         3.601181         1.609628        -2.482425
 H         2.622767         3.998882        -1.193779
 H         1.497513         2.613815        -1.727017
 H         2.801396         1.057827         1.534202
