19
Iteration:  4341charge 0 multiplicity 1
 C        -0.010302         0.121730        -0.240709
 C         1.438686        -0.043366        -0.035500
 O         2.191474        -1.225644         0.096733
 C         2.369868        -0.224056        -1.191808
 C         3.390443         0.959044        -0.609120
 C         3.702606         2.224358        -1.388517
 C         2.498386         3.121642        -1.002613
 O         1.872926         2.509390         0.181679
 C         2.340655         1.129329         0.421544
 H        -0.569733        -0.121651         0.654855
 H        -0.169793         1.135174        -0.243681
 H        -0.557193        -0.401210        -1.090629
 H         2.271919        -0.754889        -2.107556
 H         4.181286         0.521343         0.044050
 H         4.597968         2.758677        -1.167955
 H         3.682333         2.078281        -2.486095
 H         2.780252         4.094074        -0.649544
 H         1.681850         3.011198        -1.734899
 H         2.541078         1.110520         1.517619
