19
Iteration:    40
 C        -0.029787         0.200886        -0.143664
 C         1.379272         0.106418        -0.232841
 O         2.022451        -1.085622         0.070913
 C         2.544151        -0.335710        -1.133934
 C         3.447509         0.812883        -0.511793
 C         3.609662         2.117232        -1.404222
 C         2.429350         3.002510        -1.023878
 O         2.081461         2.549519         0.223676
 C         2.292799         1.192912         0.352887
 H        -0.208957        -0.252735         0.874286
 H        -0.380744         1.256089        -0.117101
 H        -0.755028        -0.245957        -0.847648
 H         2.602454        -0.952481        -2.024612
 H         4.397028         0.601002         0.069314
 H         4.533128         2.612329        -1.082900
 H         3.725545         1.892400        -2.505597
 H         2.603665         4.081696        -1.008234
 H         1.575902         2.876955        -1.766613
 H         2.403597         0.985149         1.492876
