19
Iteration:  2839
 C        -0.025077        -0.065399        -0.240969
 C         1.427291         0.031439        -0.166766
 O         2.236207        -1.092981         0.234547
 C         2.448554        -0.324216        -1.045150
 C         3.407180         0.910729        -0.653288
 C         3.436632         2.063778        -1.561881
 C         2.892068         3.202531        -0.684794
 O         1.718641         2.544846        -0.001529
 C         2.224190         1.297342         0.299787
 H        -0.459326         0.290218         0.723074
 H        -0.487605         0.644136        -1.126144
 H        -0.304571        -1.122130        -0.310863
 H         2.294929        -0.950972        -1.870548
 H         4.396045         0.677406        -0.042909
 H         4.393939         2.525485        -1.859575
 H         2.677789         2.053312        -2.419458
 H         3.762398         3.357293         0.069412
 H         2.607092         4.217635        -1.048566
 H         2.339037         1.125800         1.417793
