19
Iteration:  3310
 C        -0.118884         0.014069        -0.280580
 C         1.404199         0.097705        -0.192910
 O         2.157193        -1.072481         0.147884
 C         2.438561        -0.207844        -1.089431
 C         3.490761         0.846979        -0.526559
 C         3.639253         2.124495        -1.439723
 C         2.403599         2.990927        -1.067922
 O         2.010636         2.627618         0.296828
 C         2.312045         1.190011         0.419872
 H        -0.365944        -0.391563         0.697398
 H        -0.604367         0.901145        -0.481430
 H        -0.222468        -0.833030        -1.007676
 H         2.384534        -0.691745        -2.082758
 H         4.519307         0.466352        -0.306190
 H         4.652627         2.659665        -1.150768
 H         3.545619         1.955127        -2.548608
 H         2.636966         4.037912        -1.254499
 H         1.611052         2.641605        -1.706736
 H         2.557048         1.146727         1.493082
