19
Iteration:  4272
 C        -0.193048         0.068156        -0.067003
 C         1.348171         0.106249        -0.185422
 O         2.181219        -1.106941        -0.209994
 C         2.503649        -0.133627        -1.197740
 C         3.519495         0.831730        -0.421576
 C         3.732582         2.250884        -1.316833
 C         2.352263         2.742679        -1.170214
 O         2.049500         2.653100         0.276852
 C         2.287045         1.212228         0.571346
 H        -0.617837        -0.145564         0.974343
 H        -0.692093         0.939489        -0.404121
 H        -0.518572        -0.731907        -0.652445
 H         2.385478        -0.654623        -2.173516
 H         4.500092         0.477328        -0.083742
 H         4.497012         2.819070        -0.800221
 H         4.036671         2.080704        -2.307572
 H         2.254316         3.819278        -1.405418
 H         1.686941         2.044908        -1.751495
 H         2.414998         1.124406         1.608800
