19
Iteration:   875
 C        -0.133353         0.212904        -0.257040
 C         1.364737         0.133358        -0.310479
 O         2.166089        -1.013507         0.121062
 C         2.543590        -0.259337        -1.124422
 C         3.476254         0.764644        -0.564166
 C         3.638768         2.119800        -1.335123
 C         2.304098         2.878777        -1.090314
 O         2.010543         2.551118         0.282398
 C         2.395388         1.186776         0.468551
 H        -0.293138         0.406913         0.845541
 H        -0.637287         1.081007        -0.737527
 H        -0.581032        -0.772123        -0.409260
 H         2.651303        -0.681392        -2.088125
 H         4.467071         0.401328        -0.210499
 H         4.493925         2.648533        -0.941473
 H         3.742874         1.877318        -2.380312
 H         2.423856         3.992625        -1.150126
 H         1.557780         2.417353        -1.783873
 H         2.511604         1.030247         1.588172
