19
Iteration:   352
 C        -0.134772         0.200367        -0.160103
 C         1.372826         0.234586        -0.287973
 O         2.080983        -1.054379         0.039265
 C         2.535454        -0.293641        -1.096181
 C         3.480439         0.814536        -0.547693
 C         3.618855         2.136065        -1.403958
 C         2.315922         2.867930        -1.105495
 O         2.098812         2.517691         0.358960
 C         2.361860         1.160149         0.407913
 H        -0.332625        -0.025117         0.887712
 H        -0.396450         1.265443        -0.352369
 H        -0.609652        -0.469722        -0.897911
 H         2.615466        -0.694299        -2.175428
 H         4.326956         0.578265        -0.030687
 H         4.420116         2.649027        -0.831430
 H         3.817618         2.003504        -2.429380
 H         2.659605         3.874163        -1.318017
 H         1.528870         2.470632        -1.684134
 H         2.720358         0.939432         1.414878
