19
Iteration:  3121
 C        -0.120327         0.102075        -0.164388
 C         1.394483         0.101871        -0.187641
 O         2.176622        -1.140711        -0.012241
 C         2.514768        -0.195665        -1.079149
 C         3.461243         0.905634        -0.535421
 C         3.611417         2.087813        -1.344269
 C         2.372144         2.924365        -1.164844
 O         1.975220         2.609098         0.219467
 C         2.378525         1.201257         0.515288
 H        -0.378177        -0.479456         0.696338
 H        -0.591165         1.104170         0.031580
 H        -0.506978        -0.448491        -0.962622
 H         2.720910        -0.756895        -1.981599
 H         4.361857         0.632413        -0.015423
 H         4.459849         2.565723        -0.845382
 H         3.739098         1.830855        -2.504191
 H         2.636769         3.967267        -1.259660
 H         1.608441         2.751033        -1.934151
 H         2.408510         1.256482         1.612874
