19
Iteration:  4574
 C        -0.151600         0.045864        -0.075149
 C         1.356274         0.135847        -0.159132
 O         2.190943        -1.086631        -0.044313
 C         2.442712        -0.194675        -1.183935
 C         3.406191         0.820317        -0.627906
 C         3.796573         2.180945        -1.255009
 C         2.367954         2.901382        -1.160907
 O         1.951901         2.613389         0.246558
 C         2.378690         1.185325         0.480736
 H        -0.339083        -0.349889         0.837443
 H        -0.560211         1.129170        -0.058330
 H        -0.516695        -0.550732        -0.877755
 H         2.482981        -0.530861        -2.181845
 H         4.249716         0.369933        -0.107125
 H         4.331071         2.771635        -0.543390
 H         4.265029         2.176853        -2.235092
 H         2.325605         3.975742        -1.255916
 H         1.766528         2.390994        -1.834900
 H         2.781218         0.737445         1.422537
