19
Iteration:  3485
 C        -0.149208        -0.082676        -0.265068
 C         1.361196         0.105280        -0.102133
 O         2.188672        -1.135568         0.100610
 C         2.476098        -0.220704        -0.965996
 C         3.440837         0.875252        -0.604065
 C         3.544295         2.057827        -1.555127
 C         2.613417         3.143786        -0.991445
 O         1.970696         2.611063         0.190371
 C         2.276316         1.281968         0.533858
 H        -0.658338        -0.455707         0.678175
 H        -0.667864         0.609774        -0.897292
 H        -0.021400        -0.913723        -0.994625
 H         2.508334        -0.580061        -1.962804
 H         4.433832         0.364211        -0.453082
 H         4.551402         2.524239        -1.643027
 H         3.333816         1.743208        -2.573516
 H         3.204301         4.057174        -0.728105
 H         1.806289         3.583284        -1.624893
 H         2.436752         0.980081         1.582976
