19
Iteration:   300
 C        -0.023356         0.318376        -0.245630
 C         1.423522         0.139484         0.009017
 O         2.218009        -1.073049        -0.094471
 C         2.397235        -0.093135        -1.108304
 C         3.378306         0.851616        -0.534459
 C         3.645528         2.014724        -1.472801
 C         2.329626         2.814034        -1.073464
 O         2.009975         2.474098         0.296694
 C         2.340324         1.169026         0.545539
 H        -0.531691         0.420307         0.695231
 H        -0.135371         1.167523        -0.933222
 H        -0.328684        -0.601009        -0.763330
 H         2.132197        -0.412677        -2.080109
 H         4.346545         0.407770        -0.101473
 H         4.594458         2.367081        -1.031740
 H         3.948035         1.536683        -2.413879
 H         2.566750         3.880657        -1.159225
 H         1.506437         2.549097        -1.812288
 H         2.594472         1.142518         1.560086
