19
Iteration:  1754charge 0 multiplicity 1
 C         0.027916         0.204996        -0.444719
 C         1.480843         0.131053        -0.118822
 O         2.182684        -1.135777         0.154463
 C         2.466084        -0.318136        -1.051230
 C         3.484762         0.841907        -0.546037
 C         3.480577         2.090593        -1.445892
 C         2.311399         2.906816        -1.091892
 O         1.959578         2.610024         0.294703
 C         2.392810         1.213007         0.531310
 H        -0.806622        -0.126661         0.322468
 H        -0.192001         1.328063        -0.767804
 H        -0.253105        -0.323166        -1.411450
 H         2.402728        -0.747553        -1.999123
 H         4.452825         0.486446        -0.091858
 H         4.440557         2.602995        -1.146664
 H         3.638133         1.766309        -2.398826
 H         2.669643         3.987863        -1.031553
 H         1.355541         2.916127        -1.631401
 H         2.520525         1.120210         1.618513
