19
Iteration:  3531charge 0 multiplicity 1
 C        -0.088337         0.119393        -0.258818
 C         1.449329         0.124911        -0.181588
 O         2.237018        -1.144514         0.124318
 C         2.585324        -0.395468        -0.963527
 C         3.519458         0.850108        -0.558238
 C         3.365153         2.044044        -1.630278
 C         2.621085         3.156677        -0.867799
 O         1.801694         2.546210         0.142407
 C         2.251562         1.215676         0.444672
 H        -0.299446         0.428318         0.769602
 H        -0.322031         0.986621        -0.902902
 H        -0.596557        -0.693938        -0.598603
 H         2.623603        -0.840343        -1.979759
 H         4.537439         0.760802        -0.043604
 H         4.489894         2.348148        -1.773208
 H         2.964047         1.910898        -2.616343
 H         3.319815         3.848212        -0.307959
 H         2.062831         3.838890        -1.514233
 H         2.387092         1.037187         1.517507
