19
Iteration:  1694charge 0 multiplicity 1
 C        -0.048331         0.187503        -0.238571
 C         1.426890         0.228811        -0.220168
 O         2.152369        -1.111662        -0.013811
 C         2.600962        -0.276549        -1.064543
 C         3.481301         0.819513        -0.510724
 C         3.599645         2.084333        -1.292780
 C         2.230607         2.789673        -1.100480
 O         2.013690         2.616131         0.213123
 C         2.351019         1.258354         0.503748
 H        -0.501626         0.338170         0.761421
 H        -0.081956         1.201623        -0.660852
 H        -0.581856        -0.583229        -0.848340
 H         2.532622        -0.710110        -2.112514
 H         4.346999         0.375316        -0.040614
 H         4.242018         2.763938        -0.709167
 H         4.004075         1.709696        -2.366478
 H         2.122790         3.808420        -1.365642
 H         1.522083         2.238283        -1.725691
 H         2.272733         1.133788         1.591509
