19
Iteration:  2259charge 0 multiplicity 1
 C        -0.181443         0.022969        -0.267405
 C         1.432061         0.184806        -0.141346
 O         2.088657        -1.114730        -0.085113
 C         2.580311        -0.138169        -1.031332
 C         3.537009         0.901143        -0.477871
 C         3.628211         2.038708        -1.395994
 C         2.382903         2.846833        -1.108462
 O         2.013234         2.606358         0.294396
 C         2.335940         1.293491         0.538083
 H        -0.721461        -0.080125         0.688233
 H        -0.700317         0.751411        -0.861081
 H        -0.116686        -1.024940        -0.825507
 H         2.428884        -0.193989        -2.096623
 H         4.324909         0.221472        -0.018968
 H         4.516123         2.658577        -1.102152
 H         3.635636         1.847758        -2.446382
 H         2.586223         3.868716        -1.375327
 H         1.507144         2.512297        -1.669386
 H         2.567311         1.225735         1.605536
