19
Iteration:  1199
 C        -0.066363         0.189929        -0.337028
 C         1.464143         0.143102        -0.199445
 O         2.075432        -1.187862         0.099172
 C         2.567533        -0.324141        -1.072219
 C         3.496116         0.896710        -0.555857
 C         3.595693         2.128985        -1.434028
 C         2.300277         2.882746        -1.083665
 O         1.985778         2.668061         0.346114
 C         2.358523         1.241222         0.476074
 H        -0.459287        -0.468996         0.484968
 H        -0.310722         1.266330        -0.216259
 H        -0.206590        -0.296346        -1.318977
 H         2.566788        -1.077300        -1.813347
 H         4.534619         0.685139        -0.193224
 H         4.545865         2.634617        -1.143402
 H         3.594639         1.854204        -2.451270
 H         2.336408         3.931654        -1.249531
 H         1.550556         2.459980        -1.620607
 H         2.510162         0.874497         1.508903
