19
Iteration:  3397charge 0 multiplicity 1
 C         0.017755         0.223633        -0.206065
 C         1.442601         0.164897        -0.126943
 O         2.156938        -1.111142        -0.121226
 C         2.418534        -0.190526        -1.112033
 C         3.524635         0.858491        -0.427449
 C         3.641076         2.063828        -1.292756
 C         2.248123         2.735074        -1.197013
 O         1.939897         2.530330         0.172409
 C         2.428917         1.270579         0.657793
 H        -0.434279         0.046116         0.794991
 H        -0.353611         1.194602        -0.391312
 H        -0.454127        -0.573533        -0.892094
 H         2.290168        -0.189491        -2.176899
 H         4.404896         0.208957        -0.404221
 H         4.298876         2.911669        -0.765595
 H         4.034259         2.052594        -2.332895
 H         2.165112         3.815838        -1.406486
 H         1.475300         2.310585        -1.906754
 H         2.602206         1.443085         1.745957
