19
Iteration:  3473
 C        -0.143387        -0.135199        -0.294503
 C         1.378539         0.085458        -0.094459
 O         2.173075        -1.110906         0.142799
 C         2.465113        -0.252604        -1.143991
 C         3.432533         0.830409        -0.610749
 C         3.616625         2.059971        -1.528646
 C         2.579055         3.126651        -0.982483
 O         1.945198         2.703718         0.242334
 C         2.305429         1.286534         0.517736
 H        -0.613592        -0.459793         0.685981
 H        -0.636067         0.816014        -0.462323
 H        -0.447115        -0.984825        -0.999696
 H         2.515891        -0.870250        -2.004022
 H         4.324779         0.531033        -0.035726
 H         4.636139         2.367697        -1.510657
 H         3.247887         1.918486        -2.535019
 H         3.091598         4.060379        -0.694847
 H         1.839762         3.221583        -1.819181
 H         2.774662         1.350726         1.494514
