19
Iteration:  1003
 C        -0.155096         0.108774        -0.277130
 C         1.403342         0.149987        -0.145536
 O         2.141440        -1.018516         0.123113
 C         2.465593        -0.172750        -1.074966
 C         3.532001         0.833912        -0.632335
 C         3.707145         2.110044        -1.350065
 C         2.337229         2.849916        -1.103251
 O         1.951270         2.506362         0.257024
 C         2.367217         1.225881         0.473745
 H        -0.401353        -0.589223         0.533154
 H        -0.446993         1.091750        -0.018627
 H        -0.494805        -0.104919        -1.259693
 H         2.254503        -0.787706        -1.905228
 H         4.477486         0.299819        -0.488392
 H         4.516100         2.823119        -0.886957
 H         4.042262         2.015734        -2.389474
 H         2.612017         3.843424        -1.289496
 H         1.644389         2.650775        -1.951319
 H         2.655790         1.128672         1.525976
