19
Iteration:  4033charge 0 multiplicity 1
 C        -0.068060         0.277595        -0.141441
 C         1.450532         0.146589        -0.066863
 O         2.161504        -1.101382        -0.153460
 C         2.532235        -0.150899        -1.129647
 C         3.545508         0.868082        -0.502217
 C         3.719388         2.177894        -1.333203
 C         2.220477         2.733804        -1.230881
 O         1.901837         2.470975         0.248600
 C         2.358602         1.153491         0.613921
 H        -0.615478         0.179637         0.925784
 H        -0.185900         1.352253        -0.286048
 H        -0.480369        -0.324975        -0.933058
 H         2.304624        -0.427200        -2.192121
 H         4.489178         0.467050        -0.093346
 H         4.513169         2.918543        -0.911621
 H         4.108321         1.870504        -2.356826
 H         1.924618         3.790863        -1.549446
 H         1.472117         2.071851        -1.698546
 H         2.588797         1.148955         1.685322
