19
Iteration:  3143
 C         0.011277         0.129834        -0.172563
 C         1.456355         0.211758        -0.189941
 O         2.120679        -1.048716        -0.088580
 C         2.525455        -0.203181        -1.110312
 C         3.529014         0.776660        -0.458610
 C         3.721250         2.057089        -1.337612
 C         2.179815         2.765017        -1.136701
 O         1.961505         2.622891         0.221720
 C         2.323904         1.255139         0.540778
 H        -0.264133        -0.297727         0.774095
 H        -0.282296         1.204300        -0.034240
 H        -0.456907        -0.446413        -0.902013
 H         2.458929        -0.427548        -2.171244
 H         4.363561         0.485490         0.154373
 H         4.568212         2.614050        -0.918744
 H         3.742438         2.001031        -2.526424
 H         2.201462         3.778326        -1.480113
 H         1.334658         2.336114        -1.661853
 H         2.292439         1.105328         1.642398
