19
Iteration:  2043
 C         0.038433         0.243953        -0.324557
 C         1.499534         0.149145        -0.124046
 O         2.113865        -1.137317        -0.000615
 C         2.572562        -0.229107        -1.030066
 C         3.550624         0.863070        -0.410041
 C         3.453462         2.018152        -1.455705
 C         2.378755         2.970125        -1.104911
 O         1.845326         2.512978         0.236782
 C         2.356117         1.187372         0.569663
 H        -0.513278         0.518229         0.596576
 H        -0.136291         1.016367        -1.083026
 H        -0.336455        -0.804024        -0.679207
 H         2.622901        -0.361069        -2.089122
 H         4.563262         0.499290        -0.162592
 H         4.396174         2.590462        -1.453948
 H         3.279592         1.639128        -2.451310
 H         2.777255         3.949224        -0.983124
 H         1.578687         3.005373        -1.927339
 H         2.458406         0.943996         1.649106
