19
Iteration:  1908charge 0 multiplicity 1
 C        -0.065631         0.195558        -0.101970
 C         1.371377         0.091520        -0.191342
 O         2.183762        -1.167721        -0.059642
 C         2.573438        -0.261547        -1.074180
 C         3.458751         0.911985        -0.466988
 C         3.740384         2.167448        -1.310885
 C         2.398660         2.894533        -1.217673
 O         1.876295         2.499454         0.154039
 C         2.259335         1.210164         0.510300
 H        -0.459452        -0.061533         0.888970
 H        -0.351809         1.247397        -0.002324
 H        -0.683173        -0.223998        -0.865998
 H         2.450948        -0.320642        -2.164832
 H         4.320774         0.390934         0.058712
 H         4.521843         2.736957        -0.664332
 H         4.082805         2.156762        -2.335272
 H         2.463415         4.017529        -1.102906
 H         1.701526         2.618104        -2.047748
 H         2.390865         1.049940         1.581283
