19
Iteration:  3411
 C        -0.041412         0.143091        -0.150631
 C         1.452555         0.168352        -0.076427
 O         2.117808        -1.135608        -0.066288
 C         2.502671        -0.137650        -1.124546
 C         3.455306         0.819218        -0.520140
 C         3.675760         2.172069        -1.342871
 C         2.315320         2.781001        -1.173570
 O         1.988947         2.586553         0.221839
 C         2.315685         1.219853         0.509370
 H        -0.416197        -0.178778         0.839062
 H        -0.468901         1.107207        -0.457160
 H        -0.321628        -0.492508        -0.924364
 H         2.395573        -0.625001        -2.071615
 H         4.382125         0.509152         0.060413
 H         4.575686         2.762269        -0.812170
 H         3.984756         1.907771        -2.372067
 H         2.274612         3.872579        -1.370806
 H         1.588424         2.296854        -1.830590
 H         2.422127         1.080664         1.624850
