19
Iteration:    44
 C        -0.062925         0.224026        -0.165151
 C         1.378504         0.090499        -0.225014
 O         2.083115        -1.072435         0.088771
 C         2.523954        -0.287012        -1.164138
 C         3.415502         0.831069        -0.499251
 C         3.610077         2.108864        -1.429865
 C         2.452754         2.992693        -1.061671
 O         2.085796         2.537178         0.232658
 C         2.274141         1.147677         0.429124
 H        -0.263752        -0.215929         0.822925
 H        -0.416342         1.238660        -0.122229
 H        -0.733081        -0.268835        -0.864729
 H         2.647060        -0.898230        -2.033491
 H         4.290203         0.539238        -0.010777
 H         4.542429         2.564515        -1.136262
 H         3.687920         1.909522        -2.493901
 H         2.656572         4.056947        -1.003615
 H         1.640420         2.870177        -1.790543
 H         2.377999         0.917636         1.511054
