19
Iteration:  1700charge 0 multiplicity 1
 C        -0.039590         0.225161        -0.273688
 C         1.430896         0.178806        -0.217797
 O         2.136859        -1.105036        -0.056211
 C         2.641358        -0.247398        -1.012348
 C         3.494614         0.809287        -0.478731
 C         3.573716         2.062019        -1.366674
 C         2.220211         2.784801        -1.168978
 O         2.051497         2.622830         0.257560
 C         2.285065         1.231239         0.557883
 H        -0.402835         0.349463         0.785692
 H        -0.435796         1.277797        -0.569794
 H        -0.480386        -0.602890        -0.807280
 H         2.743476        -0.631819        -1.995913
 H         4.474693         0.508294        -0.009441
 H         4.419300         2.561563        -0.846141
 H         3.913556         1.894852        -2.314135
 H         2.066708         3.898782        -1.345769
 H         1.365208         2.204008        -1.622213
 H         2.286895         1.173008         1.654951
