19
Iteration:  3512
 C        -0.016672         0.034678        -0.257923
 C         1.458031         0.075005        -0.163092
 O         2.170971        -1.081093         0.131681
 C         2.528907        -0.279045        -1.091087
 C         3.410583         0.843680        -0.573342
 C         3.468188         1.975777        -1.496460
 C         2.621889         3.133016        -0.901200
 O         1.823304         2.606981         0.172200
 C         2.313141         1.299723         0.495298
 H        -0.569542         0.080581         0.654696
 H        -0.474686         0.760119        -0.973033
 H        -0.143418        -0.977460        -0.694521
 H         2.607379        -0.809926        -2.100167
 H         4.370975         0.430238        -0.204549
 H         4.433454         2.390084        -1.968015
 H         2.913633         1.602024        -2.426840
 H         3.234613         3.985816        -0.591645
 H         1.906095         3.552888        -1.603978
 H         2.634387         1.026455         1.537872
