19
Iteration:  3091
 C        -0.054049         0.023681        -0.194406
 C         1.416332         0.119128        -0.066365
 O         2.186958        -1.080247         0.102336
 C         2.394760        -0.304103        -1.110019
 C         3.449640         0.858727        -0.662381
 C         3.676316         2.149233        -1.402501
 C         2.526874         3.074498        -1.043638
 O         1.843928         2.570234         0.189438
 C         2.325728         1.199178         0.471767
 H        -0.544721        -0.522392         0.614242
 H        -0.519108         0.985213        -0.421754
 H        -0.121828        -0.710762        -1.047312
 H         2.304711        -0.936536        -2.013561
 H         4.401709         0.553003        -0.144981
 H         4.719196         2.448602        -1.234785
 H         3.654526         2.023758        -2.460141
 H         2.881165         4.101365        -0.895414
 H         1.776055         3.124468        -1.906319
 H         2.357569         1.097001         1.567210
