19
Iteration:  2894charge 0 multiplicity 1
 C        -0.019961         0.008751        -0.246059
 C         1.455050         0.064998        -0.127326
 O         2.179108        -1.120138         0.096219
 C         2.571105        -0.329281        -1.028024
 C         3.346765         0.854952        -0.590112
 C         3.474198         1.977662        -1.582723
 C         2.701904         3.170907        -0.809384
 O         1.769051         2.624522         0.078604
 C         2.284489         1.291293         0.499878
 H        -0.348060        -0.330156         0.757556
 H        -0.536395         1.056742        -0.490535
 H        -0.204576        -0.664220        -1.101506
 H         2.615659        -0.840957        -1.977337
 H         4.436587         0.658276        -0.215724
 H         4.494635         2.241475        -1.870594
 H         2.879056         1.949784        -2.487626
 H         3.491255         3.853960        -0.294372
 H         2.138121         3.877648        -1.479599
 H         2.327306         1.098566         1.598211
