19
Iteration:   386charge 0 multiplicity 1
 C         0.016441         0.132383        -0.268021
 C         1.404472         0.116520        -0.048742
 O         2.150096        -1.140558        -0.015367
 C         2.374952        -0.160819        -1.079105
 C         3.434387         0.813823        -0.598671
 C         3.627016         2.037640        -1.483049
 C         2.494719         2.911789        -1.086881
 O         1.956342         2.611219         0.333278
 C         2.354210         1.244954         0.545392
 H        -0.709844        -0.222880         0.437310
 H        -0.298859         1.193371        -0.279460
 H        -0.353340        -0.285790        -1.208313
 H         2.066297        -0.521176        -2.041129
 H         4.271737         0.476234        -0.101408
 H         4.651052         2.398447        -1.321614
 H         3.627245         1.793508        -2.540440
 H         2.645101         3.985666        -1.072359
 H         1.625261         2.842520        -1.675931
 H         2.535741         1.097209         1.583092
