19
Iteration:   916charge 0 multiplicity 1
 C        -0.035091         0.153492        -0.418926
 C         1.482412         0.177045        -0.045025
 O         2.085113        -1.131943         0.062702
 C         2.473923        -0.204946        -1.089665
 C         3.488379         0.813826        -0.531594
 C         3.558350         2.082475        -1.423628
 C         2.348527         2.875896        -1.080488
 O         2.000406         2.618979         0.283494
 C         2.431316         1.224620         0.561061
 H        -0.691739         0.347019         0.533478
 H        -0.429054         0.846718        -1.191913
 H        -0.382308        -0.903564        -0.607628
 H         2.112779        -0.654516        -2.033636
 H         4.408978         0.217355        -0.452019
 H         4.538892         2.634666        -1.077119
 H         3.689442         1.906866        -2.507466
 H         2.363745         3.988494        -1.147449
 H         1.449691         2.699544        -1.653769
 H         2.836081         1.103393         1.577790
