19
Iteration:   119
 C        -0.141697         0.283355        -0.148262
 C         1.373687         0.193944        -0.257867
 O         2.099058        -1.123786        -0.013145
 C         2.512701        -0.323012        -1.102933
 C         3.498969         0.782038        -0.538963
 C         3.689434         2.171260        -1.327458
 C         2.302605         2.815035        -1.054951
 O         2.046762         2.582124         0.257858
 C         2.420447         1.230276         0.433042
 H        -0.564414         0.223261         0.885125
 H        -0.632784         1.151259        -0.605430
 H        -0.520746        -0.636596        -0.625800
 H         2.580269        -0.716693        -2.091186
 H         4.340098         0.316362        -0.088830
 H         4.525001         2.733529        -0.939747
 H         3.784046         2.014198        -2.427821
 H         2.330812         3.878026        -1.238100
 H         1.547186         2.303424        -1.735920
 H         2.642200         1.011413         1.550958
