19
Iteration:  2463
 C        -0.070381         0.108206        -0.199540
 C         1.411429         0.095829        -0.160812
 O         2.161915        -1.161502         0.036439
 C         2.480660        -0.190912        -1.066378
 C         3.502024         0.811882        -0.515437
 C         3.687268         2.059420        -1.388542
 C         2.507672         3.106816        -1.076334
 O         1.768013         2.494669         0.131250
 C         2.339878         1.284952         0.501164
 H        -0.424684        -0.073328         0.791947
 H        -0.420363         1.022629        -0.589031
 H        -0.495471        -0.725529        -0.694973
 H         2.560367        -0.502209        -2.067249
 H         4.431846         0.505975        -0.043517
 H         4.625138         2.434398        -0.989318
 H         3.687352         1.773047        -2.473492
 H         2.835786         4.158202        -1.026284
 H         1.644255         2.998565        -1.668726
 H         2.602504         1.204106         1.576022
