19
Iteration:   686
 C        -0.030893         0.265549        -0.265953
 C         1.454780         0.080669        -0.130210
 O         2.147446        -1.176109         0.022888
 C         2.439615        -0.289125        -1.081296
 C         3.442501         0.757770        -0.608194
 C         3.623949         2.148316        -1.378066
 C         2.374028         2.903411        -1.112343
 O         1.979593         2.631848         0.287476
 C         2.334712         1.197010         0.527046
 H        -0.486686         0.627941         0.698448
 H        -0.227988         1.095171        -0.928632
 H        -0.544204        -0.677103        -0.529371
 H         2.463606        -0.720343        -2.068546
 H         4.409770         0.384241        -0.199139
 H         4.381553         2.715620        -0.789759
 H         3.872728         2.093503        -2.430566
 H         2.498554         3.990017        -1.207920
 H         1.481048         2.754545        -1.822568
 H         2.689407         1.119916         1.534375
