19
Iteration:  2889charge 0 multiplicity 1
 C        -0.055319        -0.008447        -0.281090
 C         1.464943         0.084636        -0.120057
 O         2.183569        -1.126300         0.152015
 C         2.568174        -0.326780        -1.046017
 C         3.360201         0.885283        -0.569984
 C         3.481820         2.041661        -1.586495
 C         2.752293         3.147145        -0.817142
 O         1.751974         2.610534         0.078475
 C         2.287827         1.234238         0.479724
 H        -0.407940        -0.208477         0.738591
 H        -0.452348         0.915145        -0.483288
 H        -0.363101        -0.747206        -1.025506
 H         2.446312        -0.713154        -2.082456
 H         4.319399         0.635392        -0.306912
 H         4.516998         2.204306        -1.917075
 H         2.713797         2.076741        -2.419051
 H         3.434972         3.777204        -0.330978
 H         2.218357         3.871549        -1.492277
 H         2.514613         1.189594         1.556707
