19
Iteration:  2173
 C        -0.032209         0.109426        -0.109501
 C         1.431800         0.139095        -0.120917
 O         2.118263        -1.155942        -0.096407
 C         2.504439        -0.157939        -1.102841
 C         3.562252         0.804650        -0.492965
 C         3.684665         2.068513        -1.340801
 C         2.415248         2.934902        -1.092810
 O         1.806132         2.536378         0.136101
 C         2.312929         1.336339         0.547983
 H        -0.431226        -0.220702         0.810744
 H        -0.234448         1.108907        -0.272913
 H        -0.439119        -0.443892        -0.989504
 H         2.513649        -0.559288        -2.094215
 H         4.444085         0.224947        -0.116121
 H         4.630252         2.676266        -0.992108
 H         3.891563         2.057709        -2.425085
 H         2.500929         3.980731        -1.182590
 H         1.707682         2.565969        -1.826197
 H         2.306037         1.145919         1.623061
