19
Iteration:  2442charge 0 multiplicity 1
 C        -0.116480         0.104783        -0.190281
 C         1.398084         0.090843        -0.093384
 O         2.185910        -1.069158         0.024216
 C         2.441305        -0.278004        -1.097804
 C         3.461403         0.852214        -0.558824
 C         3.733490         2.218810        -1.322481
 C         2.433942         2.938271        -1.097694
 O         1.933294         2.569911         0.137381
 C         2.300283         1.188173         0.491559
 H        -0.706380        -0.034107         0.689984
 H        -0.457080         0.923389        -0.746431
 H        -0.379443        -0.806945        -0.728698
 H         2.425485        -0.689180        -2.089137
 H         4.371642         0.408164        -0.142529
 H         4.505573         2.611977        -0.721259
 H         3.909473         1.856822        -2.388241
 H         2.551150         4.034196        -1.002435
 H         1.734054         2.740134        -1.926525
 H         2.548765         1.010973         1.526839
