19
Iteration:  4490
 C         0.007672         0.197283        -0.272189
 C         1.472116         0.122056        -0.164898
 O         2.132838        -1.156763        -0.036602
 C         2.499372        -0.249108        -1.160529
 C         3.481507         0.896091        -0.540839
 C         3.523557         2.107265        -1.367759
 C         2.279921         2.842104        -1.093211
 O         2.041232         2.596726         0.359690
 C         2.340679         1.223655         0.524413
 H        -0.568189        -0.036643         0.694654
 H        -0.253848         1.157956        -0.620022
 H        -0.437182        -0.536852        -0.966944
 H         2.572855        -0.700769        -2.119666
 H         4.420593         0.702110        -0.082841
 H         4.375971         2.699451        -0.932838
 H         3.889248         1.935764        -2.378745
 H         2.349469         3.930277        -1.202236
 H         1.340890         2.678121        -1.575335
 H         2.505015         0.901907         1.548066
