19
Iteration:  4817
 C        -0.136017        -0.170073        -0.137917
 C         1.440549         0.142233        -0.135357
 O         2.223685        -1.100235         0.107897
 C         2.464990        -0.181192        -1.095249
 C         3.424928         0.913707        -0.683008
 C         3.552790         2.089741        -1.518886
 C         2.920212         3.121406        -0.677336
 O         1.694099         2.565507        -0.042461
 C         2.192315         1.246719         0.417416
 H        -0.480484        -0.177110         0.997652
 H        -0.685751         0.574190        -0.677604
 H        -0.306100        -1.221576        -0.524348
 H         2.182179        -0.671985        -2.014688
 H         4.344654         0.472147        -0.351783
 H         4.570692         2.258171        -1.859790
 H         2.951788         2.115513        -2.385416
 H         3.623617         3.483766         0.069647
 H         2.580008         4.015547        -1.236415
 H         2.444430         1.204571         1.521080
