19
Iteration:  3883
 C        -0.014618         0.153120        -0.260758
 C         1.484705         0.127346        -0.120420
 O         2.283600        -1.128902         0.167901
 C         2.534358        -0.343326        -1.067641
 C         3.382497         0.815881        -0.602000
 C         3.318543         2.042272        -1.543607
 C         2.754044         3.248894        -0.751632
 O         1.715229         2.478218        -0.022486
 C         2.319261         1.203742         0.456780
 H        -0.357485         0.401851         0.755823
 H        -0.406104         0.874012        -0.943421
 H        -0.348445        -0.935766        -0.550299
 H         2.521072        -0.872214        -2.061992
 H         4.350664         0.457250        -0.205615
 H         4.328168         2.167122        -1.945454
 H         2.669430         1.785471        -2.347449
 H         3.370484         3.736972         0.002753
 H         2.253981         4.099692        -1.313934
 H         2.521735         1.161941         1.580730
