19
Iteration:  4498charge 0 multiplicity 1
 C         0.025208         0.235960        -0.234616
 C         1.440153         0.097430        -0.171859
 O         2.127499        -1.158014        -0.083843
 C         2.537204        -0.164326        -1.124824
 C         3.478903         0.880861        -0.454826
 C         3.556810         2.083620        -1.376487
 C         2.242877         2.872120        -1.137924
 O         2.003848         2.553214         0.345493
 C         2.351756         1.181741         0.542699
 H        -0.397534         0.014825         0.690512
 H        -0.264421         1.302455        -0.573965
 H        -0.304579        -0.482798        -0.940525
 H         2.521095        -0.616496        -2.086665
 H         4.455426         0.536061        -0.142422
 H         4.388005         2.772638        -1.064608
 H         3.661545         1.825166        -2.465486
 H         2.315131         3.977419        -1.160479
 H         1.459837         2.577438        -1.935711
 H         2.703788         0.962493         1.622402
