19
Iteration:  4378charge 0 multiplicity 1
 C        -0.063193         0.156536        -0.228927
 C         1.441095         0.218820        -0.250249
 O         2.183933        -1.108442         0.050693
 C         2.534602        -0.264818        -1.120346
 C         3.487852         0.809622        -0.538318
 C         3.538344         2.112257        -1.460951
 C         2.443503         3.033292        -0.889946
 O         1.814879         2.453475         0.231684
 C         2.366421         1.153990         0.456102
 H        -0.337604        -0.084850         0.762698
 H        -0.498510         1.204749        -0.551338
 H        -0.356348        -0.588240        -0.917725
 H         2.525534        -0.728879        -2.154551
 H         4.418144         0.752278         0.010746
 H         4.566288         2.621473        -1.433343
 H         3.393179         1.672662        -2.501890
 H         2.990779         3.952218        -0.681280
 H         1.753940         3.423498        -1.546411
 H         2.807796         1.055793         1.518440
