19
Iteration:  1812charge 0 multiplicity 1
 C        -0.024332         0.042574        -0.229300
 C         1.428813         0.217544        -0.214466
 O         2.077760        -1.042409         0.037694
 C         2.601239        -0.212593        -1.123251
 C         3.432758         0.751308        -0.460895
 C         3.620461         2.077173        -1.394582
 C         2.369229         2.957512        -1.059654
 O         1.989431         2.618547         0.257936
 C         2.271872         1.237955         0.486770
 H        -0.470366        -0.214492         0.788997
 H        -0.616630         0.848971        -0.728191
 H        -0.079892        -0.961480        -0.896799
 H         2.798262        -0.622330        -2.174969
 H         4.399515         0.433541         0.074490
 H         4.629626         2.412182        -1.273388
 H         3.471900         1.664394        -2.438214
 H         2.681864         4.013071        -1.175113
 H         1.566735         2.692653        -1.878526
 H         2.375741         1.112047         1.552717
