19
Iteration:  1139charge 0 multiplicity 1
 C        -0.007389        -0.000080        -0.305147
 C         1.422508         0.077516        -0.067443
 O         2.052153        -1.118189         0.022337
 C         2.474366        -0.182868        -1.074675
 C         3.487272         0.850010        -0.538184
 C         3.631111         2.113423        -1.413197
 C         2.396755         2.986170        -1.071803
 O         1.974919         2.672336         0.245267
 C         2.372614         1.174986         0.538965
 H        -0.642430         0.071682         0.606706
 H        -0.427321         0.877559        -0.870802
 H        -0.324149        -0.918958        -0.879006
 H         2.259637        -0.806791        -2.023454
 H         4.464414         0.462751        -0.232961
 H         4.604497         2.495938        -1.120046
 H         3.718590         1.923136        -2.538643
 H         2.627699         4.097990        -1.121667
 H         1.646134         2.799092        -1.895411
 H         2.546598         1.348651         1.609799
