19
Iteration:  2779
 C        -0.039407        -0.142267        -0.194943
 C         1.440626         0.122941        -0.087344
 O         2.168023        -1.041650         0.100370
 C         2.514655        -0.297987        -1.109436
 C         3.376506         0.846738        -0.615286
 C         3.557589         2.003085        -1.524202
 C         2.817926         3.203832        -0.797661
 O         1.736886         2.558654         0.027334
 C         2.196556         1.317015         0.485694
 H        -0.487775        -0.250408         0.850733
 H        -0.561049         0.710295        -0.604873
 H        -0.306727        -1.014876        -0.885392
 H         2.492407        -0.934185        -2.071971
 H         4.318329         0.505020        -0.304264
 H         4.636878         2.306857        -1.677583
 H         3.092569         2.029872        -2.509748
 H         3.485209         3.845827        -0.087383
 H         2.282585         3.908167        -1.559509
 H         2.421154         1.426514         1.552943
