19
Iteration:   748
 C        -0.064133         0.167816        -0.133965
 C         1.348671         0.112049        -0.172939
 O         2.139123        -1.179961        -0.042947
 C         2.516973        -0.214280        -1.168341
 C         3.441962         0.817681        -0.440705
 C         3.673513         2.083361        -1.325283
 C         2.375707         2.875123        -1.119980
 O         2.042487         2.669879         0.215065
 C         2.309711         1.257571         0.471325
 H        -0.404424        -0.451752         0.753763
 H        -0.469990         1.231736         0.059118
 H        -0.608876        -0.258344        -1.024912
 H         2.420670        -0.547032        -2.174200
 H         4.218285         0.371952         0.163117
 H         4.537941         2.711728        -1.153828
 H         3.749242         1.771595        -2.432386
 H         2.453654         3.962736        -1.325549
 H         1.699314         2.421663        -1.855590
 H         2.508165         1.201039         1.545002
