19
Iteration:  1316charge 0 multiplicity 1
 C        -0.132344        -0.006922        -0.124680
 C         1.403990         0.106041        -0.088428
 O         2.225189        -1.079321        -0.007803
 C         2.362349        -0.189712        -1.160985
 C         3.401836         0.841898        -0.564516
 C         3.813940         2.128625        -1.282276
 C         2.529808         2.911450        -1.181161
 O         1.868640         2.644675         0.195343
 C         2.291660         1.265029         0.489454
 H        -0.492999        -0.007142         0.881595
 H        -0.442355         0.867046        -0.678491
 H        -0.375315        -0.975819        -0.564260
 H         2.304386        -0.567306        -2.157043
 H         4.166903         0.228964        -0.051034
 H         4.599792         2.636844        -0.727625
 H         3.868858         2.068268        -2.400012
 H         2.513543         4.047462        -1.323450
 H         1.854759         2.322977        -1.896658
 H         2.679538         1.107955         1.497283
