19
Iteration:  1294charge 0 multiplicity 1
 C        -0.134533         0.034588        -0.057832
 C         1.396062         0.228325        -0.231334
 O         2.091126        -1.033080        -0.047476
 C         2.533805        -0.187762        -1.129169
 C         3.552264         0.850237        -0.478039
 C         3.719663         2.115240        -1.282448
 C         2.355728         2.882769        -1.212402
 O         1.986260         2.502451         0.163425
 C         2.281799         1.217190         0.504874
 H        -0.225641         0.068375         0.997957
 H        -0.619030         0.868734        -0.475723
 H        -0.410469        -0.964707        -0.407689
 H         2.552755        -0.500862        -2.127196
 H         4.518593         0.479394        -0.110095
 H         4.371782         2.707810        -0.645140
 H         4.145289         1.899433        -2.277909
 H         2.333572         4.024148        -1.208076
 H         1.574666         2.434490        -1.934821
 H         2.296798         1.232925         1.592667
