19
Iteration:  4450
 C        -0.102830        -0.026110        -0.395706
 C         1.373989         0.165280        -0.156071
 O         2.114894        -0.986026         0.146711
 C         2.528790        -0.228076        -1.143305
 C         3.406598         0.894714        -0.636310
 C         3.590556         2.169353        -1.494302
 C         2.378304         2.928564        -0.921679
 O         2.114548         2.517177         0.406186
 C         2.380388         1.175246         0.446384
 H        -0.700796        -0.189629         0.591310
 H        -0.471662         0.844748        -0.901067
 H        -0.283782        -0.997255        -0.987982
 H         2.327544        -0.809497        -2.078584
 H         4.389722         0.435520        -0.294440
 H         4.371442         2.792511        -1.141984
 H         3.636415         2.017465        -2.570805
 H         2.652172         3.986947        -1.038079
 H         1.477766         2.890852        -1.667604
 H         2.501252         1.031651         1.498249
