19
Iteration:  3620charge 0 multiplicity 1
 C        -0.137487        -0.200006        -0.176037
 C         1.388815         0.118362        -0.169063
 O         2.253819        -1.117342         0.147746
 C         2.443432        -0.361559        -1.045666
 C         3.358429         0.835944        -0.568062
 C         3.464122         2.077862        -1.591030
 C         2.883228         3.223936        -0.794799
 O         1.843140         2.676752         0.059868
 C         2.224192         1.356986         0.372288
 H        -0.314598        -0.677126         0.787562
 H        -0.831828         0.614461        -0.402736
 H        -0.369512        -0.931681        -0.918158
 H         2.593448        -0.950237        -2.001086
 H         4.349261         0.787804        -0.058085
 H         4.555334         2.206763        -1.921448
 H         2.793457         1.968214        -2.411857
 H         3.585800         3.769935        -0.084992
 H         2.391989         3.998988        -1.398017
 H         2.428252         1.094681         1.382771
