19
Iteration:  3636charge 0 multiplicity 1
 C        -0.020128        -0.265482        -0.079687
 C         1.313884         0.123769        -0.239333
 O         2.129153        -1.017089         0.109495
 C         2.608619        -0.317824        -1.042963
 C         3.336388         0.882138        -0.633444
 C         3.501355         2.024224        -1.536630
 C         2.862060         3.243523        -0.779746
 O         1.835485         2.686899         0.079439
 C         2.190641         1.271522         0.348492
 H        -0.374282        -0.622341         0.931389
 H        -0.694579         0.601925        -0.246422
 H        -0.409325        -1.136129        -0.758688
 H         2.531308        -0.793065        -1.975200
 H         4.201135         0.373970        -0.251001
 H         4.546649         2.084688        -1.718557
 H         3.019668         1.755806        -2.604933
 H         3.682816         3.660918        -0.215222
 H         2.423612         3.961141        -1.503555
 H         2.352021         1.310788         1.504720
