19
Iteration:  2759charge 0 multiplicity 1
 C        -0.106008        -0.047157        -0.191041
 C         1.353949         0.090120        -0.129361
 O         2.263799        -1.126007         0.137729
 C         2.434238        -0.241328        -0.997705
 C         3.413178         0.855936        -0.550788
 C         3.597125         2.073963        -1.512011
 C         2.690775         3.188390        -0.823692
 O         1.788633         2.548219        -0.017299
 C         2.336369         1.236036         0.377032
 H        -0.607262        -0.601939         0.671811
 H        -0.623517         0.910027        -0.448152
 H        -0.284710        -0.692633        -1.145784
 H         2.253960        -0.620662        -2.059584
 H         4.209808         0.424205         0.006227
 H         4.522065         2.569849        -1.594076
 H         3.250778         1.920480        -2.490694
 H         3.439177         3.815887        -0.223773
 H         2.095155         3.902410        -1.549606
 H         2.502201         1.187502         1.465982
