19
Iteration:  2112charge 0 multiplicity 1
 C        -0.097234        -0.001254        -0.219733
 C         1.405986         0.232151        -0.214503
 O         2.130358        -1.047017         0.047509
 C         2.462095        -0.246071        -1.063879
 C         3.455914         0.822350        -0.589218
 C         3.700976         2.131825        -1.322040
 C         2.395146         2.846731        -1.111620
 O         1.970009         2.677982         0.302594
 C         2.387477         1.224228         0.418656
 H        -0.514750        -0.623537         0.682769
 H        -0.760748         0.976567        -0.494063
 H        -0.390611        -0.655513        -1.052114
 H         2.411044        -0.850714        -1.991442
 H         4.376570         0.530099        -0.145086
 H         4.401043         2.641146        -0.729918
 H         4.019352         2.066192        -2.390952
 H         2.337164         3.938010        -1.422450
 H         1.599198         2.292379        -1.684727
 H         2.628869         0.926644         1.488859
