19
Iteration:  4357charge 0 multiplicity 1
 C        -0.040034         0.176850        -0.221209
 C         1.462212         0.035909        -0.119401
 O         2.206380        -1.149342         0.064374
 C         2.496768        -0.310478        -1.098308
 C         3.446290         0.771965        -0.665936
 C         3.586263         2.191697        -1.398218
 C         2.467558         3.128709        -0.927494
 O         1.794672         2.496497         0.186473
 C         2.331741         1.198180         0.476064
 H        -0.599485        -0.143408         0.702207
 H        -0.210073         1.325331        -0.504882
 H        -0.307557        -0.340061        -1.109414
 H         2.397363        -0.832474        -2.083685
 H         4.449155         0.317508        -0.584100
 H         4.610262         2.515604        -1.024756
 H         3.602426         2.114489        -2.517858
 H         2.820719         4.145084        -0.614182
 H         1.813036         3.402783        -1.746910
 H         2.625912         1.062317         1.558369
