19
Iteration:  4568
 C        -0.126670         0.128203        -0.074143
 C         1.357293         0.133078        -0.121799
 O         2.198804        -1.135697        -0.086548
 C         2.463593        -0.217113        -1.162987
 C         3.439348         0.845256        -0.611586
 C         3.765452         2.231169        -1.245336
 C         2.374201         2.845097        -1.175513
 O         1.938293         2.607772         0.250987
 C         2.363217         1.188398         0.450723
 H        -0.460932        -0.361191         0.966383
 H        -0.539568         1.087965        -0.024612
 H        -0.480468        -0.520796        -0.939213
 H         2.386911        -0.573652        -2.245955
 H         4.308596         0.278782        -0.212422
 H         4.313975         2.846428        -0.414573
 H         4.250091         2.081320        -2.242836
 H         2.510153         3.963815        -1.320302
 H         1.519911         2.343226        -1.799058
 H         2.596353         0.900045         1.513810
