19
Iteration:   205charge 0 multiplicity 1
 C        -0.090855         0.110081        -0.200657
 C         1.354822         0.139140        -0.044927
 O         2.158112        -1.065762        -0.011098
 C         2.373826        -0.122604        -1.127810
 C         3.435018         0.804373        -0.524755
 C         3.649684         2.041971        -1.350606
 C         2.463318         2.956897        -1.147477
 O         2.069427         2.554195         0.194850
 C         2.324955         1.184519         0.537323
 H        -0.388686        -0.485270         0.686787
 H        -0.453186         1.144750        -0.266018
 H        -0.304170        -0.427858        -1.138269
 H         2.197187        -0.351685        -2.131068
 H         4.354919         0.248382        -0.185532
 H         4.562207         2.556778        -1.116446
 H         3.730941         1.814111        -2.457487
 H         2.578053         4.018746        -1.164807
 H         1.646829         2.738461        -1.868751
 H         2.542768         1.003083         1.642293
