19
Iteration:  3358
 C        -0.021700         0.307327        -0.167803
 C         1.499259         0.170957        -0.179628
 O         2.133204        -1.174975        -0.062601
 C         2.536318        -0.182011        -1.090651
 C         3.517043         0.863953        -0.492425
 C         3.684419         2.226351        -1.345187
 C         2.234764         2.714330        -1.185416
 O         1.897486         2.461984         0.200947
 C         2.321173         1.195623         0.611106
 H        -0.382252         0.346812         0.885101
 H        -0.015825         1.411698        -0.498103
 H        -0.623512        -0.284783        -0.794266
 H         2.305876        -0.549375        -2.077704
 H         4.541000         0.560794        -0.136060
 H         4.490542         2.835294        -1.036362
 H         3.824943         1.779939        -2.303029
 H         2.164766         3.814205        -1.234723
 H         1.571336         2.182485        -1.876409
 H         2.610412         1.189115         1.686895
