19
Iteration:  4008
 C        -0.044585         0.121328        -0.156760
 C         1.426506         0.157550        -0.100552
 O         2.168783        -1.078188        -0.045180
 C         2.427945        -0.129794        -1.133403
 C         3.454070         0.816708        -0.614102
 C         3.694148         2.134593        -1.253947
 C         2.360206         2.798922        -1.192315
 O         1.912501         2.509702         0.178003
 C         2.379196         1.251376         0.567182
 H        -0.312057        -0.480977         0.787055
 H        -0.517070         1.160265         0.132907
 H        -0.442275        -0.317099        -1.081521
 H         2.253518        -0.434252        -2.104590
 H         4.336781         0.313895        -0.189142
 H         4.408926         2.651186        -0.605287
 H         4.083380         2.199579        -2.270078
 H         2.473730         3.905848        -1.270880
 H         1.474940         2.463491        -1.840299
 H         2.803605         1.268420         1.548736
