19
Iteration:  2827
 C        -0.073987        -0.094892        -0.176550
 C         1.390831         0.043767        -0.144136
 O         2.242476        -1.100442         0.185375
 C         2.541005        -0.337482        -1.067808
 C         3.376620         0.864153        -0.589150
 C         3.443188         2.134183        -1.609595
 C         2.862593         3.196865        -0.628530
 O         1.785136         2.629190        -0.055725
 C         2.163802         1.236749         0.332116
 H        -0.500568         0.385049         0.744513
 H        -0.505196         0.562109        -1.102526
 H        -0.443728        -1.113342        -0.332914
 H         2.690034        -0.882220        -1.957202
 H         4.409014         0.526406        -0.218854
 H         4.408643         2.168087        -2.067494
 H         2.781458         1.857274        -2.447467
 H         3.649191         3.458911         0.197313
 H         2.490620         4.188838        -1.088269
 H         2.357727         1.314882         1.427255
