19
Iteration:   290charge 0 multiplicity 1
 C        -0.028661         0.268307        -0.248390
 C         1.427863         0.105903        -0.024890
 O         2.215279        -1.097447        -0.058141
 C         2.301012        -0.096223        -1.151349
 C         3.464370         0.835798        -0.543667
 C         3.683234         2.022940        -1.406111
 C         2.409082         2.837671        -1.073622
 O         1.968692         2.510043         0.236230
 C         2.354785         1.180077         0.659200
 H        -0.658812         0.479426         0.610239
 H        -0.088158         1.197645        -0.834435
 H        -0.526652        -0.525304        -0.817518
 H         2.233241        -0.388241        -2.120932
 H         4.426667         0.200822        -0.326106
 H         4.532439         2.666281        -1.476997
 H         3.503063         1.792627        -2.530138
 H         2.384288         3.918758        -1.158134
 H         1.565507         2.520574        -1.790268
 H         2.584306         1.122878         1.699836
