19
Iteration:  2199charge 0 multiplicity 1
 C        -0.140744         0.260756        -0.133980
 C         1.422131         0.079555        -0.155702
 O         2.201130        -1.133821         0.036067
 C         2.547466        -0.331629        -1.208178
 C         3.460163         0.818925        -0.548566
 C         3.701225         2.229896        -1.249906
 C         2.392234         2.995479        -1.152620
 O         1.829530         2.437454         0.146449
 C         2.400659         1.244213         0.533483
 H        -0.504399         0.086518         0.911356
 H        -0.278127         1.323326        -0.582617
 H        -0.674535        -0.363390        -0.782392
 H         2.313487        -0.918329        -2.150568
 H         4.299496         0.269843        -0.193404
 H         4.449264         2.822224        -0.834936
 H         4.142960         2.067771        -2.270501
 H         2.463012         4.124568        -1.039319
 H         1.606449         2.705582        -1.930210
 H         2.528850         0.896286         1.566923
