19
Iteration:  3764
 C        -0.056588        -0.046751        -0.127188
 C         1.402835         0.099216        -0.176020
 O         2.212542        -1.146127         0.055502
 C         2.500572        -0.358649        -1.086636
 C         3.387151         0.841963        -0.560931
 C         3.494298         2.038065        -1.503620
 C         2.699625         3.169329        -0.899882
 O         1.816311         2.663404         0.105366
 C         2.267447         1.295312         0.469142
 H        -0.468225        -0.326360         0.843777
 H        -0.575958         0.841096        -0.442985
 H        -0.457434        -0.816399        -0.945097
 H         2.872974        -0.776149        -2.031853
 H         4.366584         0.640458        -0.072422
 H         4.489667         2.394100        -1.707527
 H         3.031486         1.757403        -2.467520
 H         3.484759         3.768336        -0.395771
 H         2.279624         3.941065        -1.626792
 H         2.397811         1.282416         1.522668
