19
Iteration:  2564charge 0 multiplicity 1
 C        -0.109402        -0.119352        -0.290397
 C         1.381378         0.071691        -0.123753
 O         2.232778        -1.056759         0.193140
 C         2.550020        -0.323603        -0.993019
 C         3.386505         0.915106        -0.563746
 C         3.463153         2.027438        -1.614217
 C         2.815873         3.156086        -0.702689
 O         1.778506         2.560836        -0.005566
 C         2.272466         1.290918         0.368610
 H        -0.598891        -0.184767         0.649239
 H        -0.456606         0.812869        -0.603257
 H        -0.430126        -0.859727        -1.036703
 H         2.373897        -0.956982        -1.944366
 H         4.358095         0.710656        -0.095771
 H         4.390181         2.403560        -1.936154
 H         2.742573         2.094311        -2.549280
 H         3.677799         3.516194         0.006989
 H         2.476343         4.069237        -1.230761
 H         2.396520         1.550856         1.398669
