19
Iteration:   378charge 0 multiplicity 1
 C        -0.054648         0.176217        -0.251444
 C         1.429609         0.126029        -0.083946
 O         2.196122        -1.106913         0.025162
 C         2.411469        -0.188719        -1.172619
 C         3.447730         0.735217        -0.608929
 C         3.665585         2.027728        -1.455267
 C         2.402319         2.949572        -1.044302
 O         2.001548         2.611846         0.315698
 C         2.252324         1.245300         0.578352
 H        -0.635564        -0.240168         0.612900
 H        -0.289308         1.259509        -0.282152
 H        -0.318573        -0.300341        -1.198776
 H         2.310341        -0.455198        -2.171790
 H         4.431824         0.157377        -0.249619
 H         4.649524         2.450639        -1.247813
 H         3.430947         1.783318        -2.545459
 H         2.740596         3.987270        -1.154100
 H         1.569448         2.635922        -1.750905
 H         2.531946         1.232030         1.630519
