19
Iteration:  2632charge 0 multiplicity 1
 C        -0.095621        -0.156490        -0.231437
 C         1.359444         0.067249        -0.127418
 O         2.200013        -1.012667         0.166337
 C         2.541093        -0.383523        -1.011419
 C         3.378099         0.872993        -0.643581
 C         3.549002         2.186918        -1.619819
 C         2.837917         3.161382        -0.751163
 O         1.779654         2.567154         0.011888
 C         2.192308         1.265144         0.461044
 H        -0.594547         0.228564         0.628241
 H        -0.463857         0.624571        -0.972660
 H        -0.444335        -1.115740        -0.520460
 H         2.565648        -0.861473        -1.999121
 H         4.383896         0.632574        -0.141637
 H         4.684465         2.324288        -1.754844
 H         3.005484         1.848205        -2.600886
 H         3.563307         3.767129        -0.016908
 H         2.312861         3.905235        -1.306391
 H         2.391917         1.057630         1.546280
