19
Iteration:   731charge 0 multiplicity 1
 C        -0.068431         0.159499        -0.189393
 C         1.473727         0.231434        -0.073276
 O         2.125708        -1.066636        -0.111354
 C         2.482382        -0.154752        -1.073329
 C         3.461390         0.809154        -0.485396
 C         3.672487         1.980196        -1.408699
 C         2.384824         2.851020        -1.141605
 O         1.922256         2.540900         0.242547
 C         2.347573         1.252180         0.581922
 H        -0.627951        -0.213759         0.684460
 H        -0.411983         1.149134        -0.305110
 H        -0.337298        -0.477046        -1.024048
 H         2.390019        -0.516510        -2.117551
 H         4.482952         0.399563        -0.310860
 H         4.579260         2.512280        -1.022386
 H         3.779233         1.710550        -2.425573
 H         2.622873         3.917818        -1.253606
 H         1.535282         2.720079        -1.887733
 H         2.407129         1.111239         1.673634
