19
Iteration:   722
 C        -0.031198         0.162545        -0.241544
 C         1.353506         0.226430        -0.050662
 O         2.095679        -1.089028        -0.036552
 C         2.491162        -0.074138        -1.091612
 C         3.537305         0.783855        -0.513687
 C         3.630284         2.029001        -1.415283
 C         2.384183         2.839479        -1.126752
 O         1.890137         2.500328         0.220755
 C         2.446550         1.224919         0.603362
 H        -0.480388        -0.047512         0.681065
 H        -0.410291         1.100125        -0.587364
 H        -0.341658        -0.538123        -0.967858
 H         2.303981        -0.344244        -2.184356
 H         4.445991         0.139938        -0.247773
 H         4.473607         2.712930        -1.223103
 H         3.772778         1.802877        -2.450782
 H         2.786040         3.934341        -1.042861
 H         1.620257         2.610269        -2.010854
 H         2.546490         1.187196         1.756601
