19
Iteration:  4438charge 0 multiplicity 1
 C        -0.050850        -0.032289        -0.372414
 C         1.395294         0.118833        -0.186728
 O         2.142219        -1.048521         0.037753
 C         2.481346        -0.247695        -1.061522
 C         3.453723         0.797656        -0.608525
 C         3.537924         2.102436        -1.490703
 C         2.407211         3.032383        -0.938304
 O         2.091254         2.631943         0.363647
 C         2.302004         1.239376         0.536050
 H        -0.663539        -0.112032         0.627365
 H        -0.477361         0.716868        -0.954683
 H        -0.166729        -0.997641        -0.988234
 H         2.370614        -0.564789        -2.086026
 H         4.449829         0.459282        -0.218187
 H         4.536706         2.426971        -1.351157
 H         3.380315         2.077803        -2.555938
 H         2.685265         4.055017        -0.704441
 H         1.449363         2.956198        -1.572712
 H         2.618937         0.969443         1.486668
