19
Iteration:  3075
 C        -0.052500        -0.046200        -0.239170
 C         1.419074         0.122735        -0.149325
 O         2.215685        -1.083144         0.119190
 C         2.462545        -0.241939        -1.068001
 C         3.335957         0.775538        -0.605351
 C         3.595999         2.068522        -1.423459
 C         2.536824         3.108851        -0.962425
 O         1.868598         2.560141         0.135735
 C         2.353858         1.298283         0.444210
 H        -0.468700        -0.117625         0.776665
 H        -0.494327         0.944469        -0.473788
 H        -0.428753        -0.827544        -0.859006
 H         2.382468        -0.616956        -2.078404
 H         4.207366         0.214311        -0.349315
 H         4.441503         2.500801        -0.892601
 H         3.704732         1.867094        -2.591301
 H         2.964211         4.081573        -0.625897
 H         1.845867         3.391988        -1.736794
 H         2.906413         1.343544         1.424589
