19
Iteration:  3896
 C        -0.069195         0.052088        -0.222050
 C         1.394247         0.024581        -0.102569
 O         2.244685        -1.133403         0.133428
 C         2.497015        -0.277678        -0.995338
 C         3.412542         0.916115        -0.601933
 C         3.470134         2.079540        -1.591635
 C         2.724368         3.186123        -0.755879
 O         1.787285         2.458843         0.026324
 C         2.317937         1.255246         0.446726
 H        -0.611579         0.292307         0.656872
 H        -0.188132         0.894145        -0.991992
 H        -0.644840        -0.922993        -0.659227
 H         2.309821        -0.744671        -2.047031
 H         4.458709         0.737238        -0.273681
 H         4.413249         2.326940        -1.974871
 H         2.840817         1.960284        -2.450119
 H         3.438377         3.823974        -0.285830
 H         2.065090         3.773014        -1.513561
 H         2.674145         1.257035         1.489404
