19
Iteration:   234
 C        -0.189783         0.128900        -0.106847
 C         1.316524         0.147569        -0.296645
 O         2.127672        -1.051600         0.042918
 C         2.528084        -0.277218        -1.125081
 C         3.552372         0.752539        -0.631036
 C         3.738247         2.057887        -1.366782
 C         2.410236         2.924371        -1.039599
 O         2.041378         2.671390         0.314770
 C         2.257803         1.216367         0.409802
 H        -0.267268        -0.301482         0.890353
 H        -0.586717         1.163719        -0.028218
 H        -0.816266        -0.453649        -0.804803
 H         2.527965        -0.697847        -2.184050
 H         4.569624         0.344621        -0.241278
 H         4.592327         2.616238        -0.962690
 H         3.731904         2.105335        -2.484619
 H         2.416298         4.016452        -1.215470
 H         1.634427         2.380517        -1.612733
 H         2.369026         0.954290         1.425675
