19
Iteration:  3854charge 0 multiplicity 1
 C        -0.083818         0.084270        -0.267454
 C         1.426700         0.045099        -0.193396
 O         2.199301        -1.132562         0.241720
 C         2.669640        -0.322605        -0.982739
 C         3.418000         0.965633        -0.667662
 C         3.311399         2.048161        -1.691376
 C         2.836969         3.148213        -0.693228
 O         1.709129         2.501682         0.045746
 C         2.266934         1.233957         0.411739
 H        -0.203733         0.249566         0.792374
 H        -0.325787         1.068410        -0.816470
 H        -0.573917        -0.913338        -0.562535
 H         2.728718        -0.798280        -2.042006
 H         4.378334         0.806513        -0.149808
 H         4.286791         2.165705        -2.186645
 H         2.564104         1.808216        -2.508802
 H         3.544449         3.408999         0.123118
 H         2.554713         4.199028        -1.030865
 H         2.585964         1.105769         1.419660
