19
Iteration:  1179charge 0 multiplicity 1
 C        -0.143004         0.111656        -0.332424
 C         1.388491         0.123137        -0.271914
 O         2.166817        -1.014098         0.048422
 C         2.639614        -0.265954        -1.002247
 C         3.457719         0.808542        -0.424828
 C         3.529325         2.057001        -1.440738
 C         2.300285         2.943878        -1.059336
 O         2.131652         2.613098         0.246073
 C         2.279424         1.191339         0.502253
 H        -0.435967        -0.325138         0.646281
 H        -0.372189         1.168250        -0.171926
 H        -0.590711        -0.508446        -1.050804
 H         2.782614        -0.544144        -2.055706
 H         4.448699         0.465029        -0.090338
 H         4.379187         2.801565        -1.250419
 H         3.588053         1.698772        -2.492654
 H         2.555460         3.959012        -1.151492
 H         1.354346         2.708030        -1.668649
 H         2.333489         0.806692         1.558171
