19
Iteration:  2263
 C        -0.148547         0.007190        -0.280216
 C         1.403374         0.201192        -0.168510
 O         2.100183        -1.131325        -0.062575
 C         2.567149        -0.139131        -1.072817
 C         3.491529         0.928106        -0.437426
 C         3.622646         2.011281        -1.423236
 C         2.399138         2.835287        -1.122392
 O         2.028920         2.591003         0.341147
 C         2.336612         1.309990         0.557930
 H        -0.696825        -0.103304         0.649014
 H        -0.791763         0.709738        -0.857983
 H        -0.249691        -0.867033        -0.830531
 H         2.432574        -0.154061        -2.228791
 H         4.376632         0.463043         0.016848
 H         4.590295         2.663786        -1.223465
 H         3.746150         1.857066        -2.585469
 H         2.529123         3.885722        -1.360367
 H         1.577383         2.428971        -1.704474
 H         2.595409         1.360860         1.666555
