19
Iteration:  2396
 C        -0.140046         0.057659        -0.196934
 C         1.436671         0.235168        -0.143951
 O         2.098165        -1.067313        -0.090161
 C         2.570329        -0.148623        -1.076033
 C         3.502203         0.845352        -0.442758
 C         3.686581         2.099127        -1.336051
 C         2.312980         2.818746        -1.214936
 O         2.035948         2.576390         0.279770
 C         2.322152         1.230652         0.504566
 H        -0.608697        -0.185438         0.750897
 H        -0.619763         0.961801        -0.583163
 H        -0.348287        -0.737729        -0.834679
 H         2.620912        -0.622322        -2.016893
 H         4.348786         0.286358        -0.021232
 H         4.399241         2.727608        -0.776480
 H         3.819390         1.878852        -2.432437
 H         2.173164         3.915442        -1.378489
 H         1.690737         2.263989        -1.873075
 H         2.328243         1.160772         1.635588
