19
Iteration:  4230
 C         0.007298         0.240383        -0.199531
 C         1.492137         0.107873        -0.048501
 O         2.140651        -1.122550        -0.010093
 C         2.435929        -0.279816        -1.186902
 C         3.512764         0.870585        -0.620970
 C         3.723689         2.196376        -1.325076
 C         2.362033         2.977025        -1.024545
 O         1.767321         2.428056         0.188510
 C         2.379401         1.185093         0.552439
 H        -0.661445        -0.090610         0.669686
 H        -0.118926         1.202659        -0.453856
 H        -0.247721        -0.486626        -0.963829
 H         2.240530        -0.507655        -2.250305
 H         4.382981         0.263396        -0.383740
 H         4.564542         2.866131        -1.195250
 H         3.678018         1.900074        -2.358865
 H         2.706237         3.993855        -0.840419
 H         1.707660         2.760155        -1.817307
 H         2.491587         1.079435         1.609900
