19
Iteration:  4143
 C        -0.076202        -0.151537        -0.451093
 C         1.385994         0.092022        -0.140972
 O         2.114762        -1.061761         0.125316
 C         2.465672        -0.272097        -1.067109
 C         3.427469         0.837175        -0.537048
 C         3.507041         2.149797        -1.515864
 C         2.465055         3.157396        -0.949269
 O         2.169236         2.635842         0.368506
 C         2.320669         1.247696         0.443803
 H        -0.690091        -0.289961         0.566133
 H        -0.556705         0.647188        -0.941576
 H        -0.261162        -1.024619        -1.149209
 H         2.414779        -0.754307        -2.114455
 H         4.347425         0.432184        -0.100874
 H         4.563068         2.530997        -1.652876
 H         3.107368         1.704171        -2.445108
 H         2.898413         4.194467        -0.889129
 H         1.437121         3.092014        -1.436273
 H         2.490026         1.010398         1.515876
