19
Iteration:  1461
 C        -0.008772         0.206318        -0.435094
 C         1.476098         0.200343        -0.150606
 O         2.119199        -1.025838         0.106022
 C         2.528072        -0.227718        -1.008239
 C         3.515138         0.818625        -0.617046
 C         3.581605         2.060110        -1.391687
 C         2.213654         2.713251        -1.101343
 O         2.039353         2.578511         0.355557
 C         2.328783         1.242502         0.554387
 H        -0.723058         0.162613         0.419276
 H        -0.252014         1.181003        -0.907044
 H        -0.262664        -0.625520        -1.067671
 H         2.362642        -0.470246        -2.067735
 H         4.576096         0.487576        -0.366324
 H         4.382021         2.672095        -0.886890
 H         3.728442         2.009056        -2.474387
 H         2.176357         3.705627        -1.499976
 H         1.418988         2.212832        -1.648767
 H         2.679784         1.107624         1.554427
