19
Iteration:  4589
 C        -0.101717        -0.066541        -0.101872
 C         1.357758         0.150691        -0.186842
 O         2.154106        -0.997097        -0.001748
 C         2.416104        -0.157032        -1.210378
 C         3.446742         0.825845        -0.602910
 C         3.737984         2.172283        -1.264163
 C         2.438514         2.927127        -1.067343
 O         2.019060         2.550633         0.218404
 C         2.310568         1.240642         0.440876
 H        -0.391621        -0.472595         0.956317
 H        -0.627733         0.823751        -0.142924
 H        -0.523160        -0.786281        -0.875449
 H         2.245239        -0.767618        -2.155645
 H         4.324838         0.237089        -0.352635
 H         4.704349         2.489488        -0.660067
 H         3.963697         2.006523        -2.376300
 H         2.481838         4.084028        -1.097921
 H         1.638181         2.573609        -1.803442
 H         2.380081         1.292642         1.579972
