19
Iteration:  3786
 C        -0.121509        -0.213136        -0.250926
 C         1.344994         0.091453        -0.076645
 O         2.163114        -1.037304         0.088133
 C         2.530771        -0.227006        -0.985591
 C         3.401792         0.875228        -0.555737
 C         3.511725         2.028590        -1.573451
 C         2.756486         3.207111        -0.890830
 O         1.947835         2.577223         0.118588
 C         2.274251         1.282661         0.443541
 H        -0.484183        -0.613528         0.698224
 H        -0.761076         0.642583        -0.484784
 H        -0.424534        -1.001659        -1.124185
 H         2.170097        -0.601213        -1.966978
 H         4.453100         0.691809        -0.280741
 H         4.442238         2.229985        -2.038033
 H         2.775747         1.794257        -2.350312
 H         3.416725         3.959908        -0.429364
 H         2.059003         3.911342        -1.512069
 H         2.433247         1.256649         1.490564
