19
Iteration:  3858
 C        -0.047775         0.071566        -0.242525
 C         1.463338         0.078159        -0.195857
 O         2.194033        -1.123437         0.211293
 C         2.672389        -0.338421        -0.997438
 C         3.442125         0.952046        -0.684962
 C         3.309627         2.008781        -1.671264
 C         2.822671         3.113938        -0.661199
 O         1.675668         2.524607         0.036316
 C         2.242600         1.253441         0.399669
 H        -0.316248         0.457384         0.835577
 H        -0.207711         0.968245        -0.811252
 H        -0.579348        -0.724018        -0.604906
 H         2.600157        -0.854383        -1.899882
 H         4.356758         0.793388        -0.126522
 H         4.291603         2.376978        -2.205454
 H         2.563142         1.715057        -2.464845
 H         3.562324         3.440118         0.151292
 H         2.535320         4.054006        -1.037888
 H         2.643559         1.118397         1.470654
