19
Iteration:  4146charge 0 multiplicity 1
 C        -0.071922        -0.158906        -0.423356
 C         1.353187         0.094399        -0.155144
 O         2.114231        -1.028776         0.101836
 C         2.465232        -0.307442        -1.079291
 C         3.454139         0.856797        -0.504369
 C         3.489007         2.137774        -1.526546
 C         2.474369         3.174887        -0.943643
 O         2.174434         2.603931         0.351541
 C         2.319265         1.241656         0.481997
 H        -0.607702        -0.264732         0.488273
 H        -0.605394         0.699066        -0.900697
 H        -0.244912        -1.020156        -1.179126
 H         2.437439        -0.726970        -2.047518
 H         4.358664         0.479877        -0.039727
 H         4.477560         2.600368        -1.657960
 H         3.153162         1.691219        -2.529625
 H         2.827365         4.161586        -0.934000
 H         1.527412         3.206493        -1.579855
 H         2.500572         0.952408         1.573972
