19
Iteration:  3433
 C        -0.209576         0.017234        -0.158766
 C         1.375081         0.096496        -0.243789
 O         2.171892        -1.044300         0.049573
 C         2.528430        -0.274683        -1.112317
 C         3.462115         0.816094        -0.539066
 C         3.678505         2.149725        -1.408397
 C         2.420249         2.958812        -1.077395
 O         1.976430         2.605513         0.234890
 C         2.381519         1.287276         0.468864
 H        -0.277112        -0.418353         0.848913
 H        -0.667097         1.019750        -0.197172
 H        -0.711224        -0.590404        -0.825594
 H         2.523919        -0.876078        -2.020413
 H         4.437973         0.369723        -0.142795
 H         4.615288         2.695344        -0.922115
 H         3.865644         1.925945        -2.480690
 H         2.556354         4.057437        -1.105518
 H         1.603306         2.654428        -1.745860
 H         2.281129         1.022192         1.519050
