19
Iteration:  3029
 C        -0.097479         0.012252        -0.117392
 C         1.438096         0.074867        -0.171726
 O         2.149927        -1.122563        -0.018965
 C         2.564184        -0.258466        -1.114028
 C         3.480409         0.875005        -0.474235
 C         3.579612         1.986687        -1.442599
 C         2.562549         3.143675        -0.980938
 O         1.827445         2.576707         0.112351
 C         2.292102         1.282220         0.461371
 H        -0.474264         0.293386         0.905166
 H        -0.628140         0.688670        -0.711674
 H        -0.466138        -1.036107        -0.372217
 H         2.482087        -0.724545        -2.115659
 H         4.481700         0.732472        -0.065197
 H         4.556741         2.455976        -1.269536
 H         3.352306         1.792202        -2.481642
 H         3.226390         3.975329        -0.585194
 H         1.863148         3.600044        -1.611140
 H         2.365490         1.004144         1.511504
