19
Iteration:  4783
 C        -0.136122        -0.147676        -0.221107
 C         1.339257         0.079453        -0.243842
 O         2.281661        -1.118437         0.217848
 C         2.501864        -0.425762        -1.040101
 C         3.368547         0.837388        -0.722925
 C         3.424920         2.157111        -1.521815
 C         2.897448         3.296316        -0.691841
 O         1.869686         2.662347         0.128052
 C         2.200365         1.248703         0.306954
 H        -0.628538        -0.410400         0.757803
 H        -0.783341         0.715947        -0.554624
 H        -0.401343        -0.946548        -0.989645
 H         2.294792        -1.065447        -1.955134
 H         4.350681         0.690653        -0.272107
 H         4.443218         2.266677        -1.804916
 H         2.836268         2.033100        -2.411797
 H         3.562260         3.772828         0.013469
 H         2.439615         4.100368        -1.407265
 H         2.543727         1.042065         1.337204
