19
Iteration:   626
 C        -0.034072         0.080369        -0.269150
 C         1.397569         0.192401        -0.103259
 O         2.040325        -1.102676        -0.022799
 C         2.470234        -0.180408        -1.083820
 C         3.509055         0.747659        -0.473646
 C         3.634349         2.044483        -1.399146
 C         2.293177         2.969942        -1.068193
 O         2.060023         2.603259         0.260406
 C         2.413707         1.246904         0.521463
 H        -0.601972        -0.061777         0.691835
 H        -0.453842         1.009303        -0.870284
 H        -0.401283        -0.707171        -0.967930
 H         2.276972        -0.505746        -2.106101
 H         4.526677         0.442517        -0.205129
 H         4.559643         2.634207        -1.433005
 H         3.578313         1.645952        -2.465709
 H         2.639263         4.020403        -1.178578
 H         1.496725         2.660224        -1.677264
 H         2.800850         1.083955         1.558718
