19
Iteration:  4979charge 0 multiplicity 1
 C        -0.134370         0.089410        -0.167825
 C         1.400269         0.120024        -0.273802
 O         2.086970        -1.117194         0.022314
 C         2.530461        -0.213764        -1.194827
 C         3.537332         0.796141        -0.534887
 C         3.641650         2.187013        -1.315322
 C         2.220574         2.900755        -1.060035
 O         2.117083         2.624458         0.346283
 C         2.396205         1.222622         0.450085
 H        -0.518723        -0.087764         0.763043
 H        -0.498815         1.071895        -0.481375
 H        -0.529020        -0.686362        -0.901572
 H         2.443753        -0.773149        -2.129670
 H         4.515383         0.326736        -0.392281
 H         4.508965         2.810661        -1.042892
 H         3.870821         1.957009        -2.422701
 H         2.102675         4.029450        -1.206557
 H         1.470748         2.415105        -1.760101
 H         2.504488         1.042072         1.473208
