19
Iteration:  1687
 C        -0.045423         0.199303        -0.223619
 C         1.457640         0.194453        -0.206768
 O         2.167432        -1.099643         0.036808
 C         2.504877        -0.287951        -1.127080
 C         3.477588         0.816127        -0.494246
 C         3.653214         2.114907        -1.251096
 C         2.256084         2.773109        -1.127995
 O         1.961124         2.601801         0.229278
 C         2.368835         1.259523         0.453929
 H        -0.575719         0.193456         0.821772
 H        -0.214414         1.150114        -0.879115
 H        -0.539318        -0.536693        -0.865851
 H         2.407850        -0.726826        -2.167095
 H         4.397802         0.392409        -0.092574
 H         4.314689         2.868851        -0.782030
 H         3.970068         1.968495        -2.253458
 H         2.317366         3.866091        -1.394214
 H         1.532653         2.300666        -1.845922
 H         2.496125         1.100165         1.557994
