19
Iteration:  1898charge 0 multiplicity 1
 C        -0.099833         0.216500        -0.088005
 C         1.439958         0.087196        -0.139740
 O         2.149035        -1.067648        -0.048965
 C         2.537723        -0.232168        -1.127405
 C         3.472976         0.838175        -0.536163
 C         3.750084         2.195065        -1.195117
 C         2.406256         2.850691        -1.217781
 O         1.828434         2.489332         0.149503
 C         2.294777         1.175697         0.464406
 H        -0.373627        -0.237665         0.871964
 H        -0.187488         1.287031        -0.229274
 H        -0.669980        -0.357000        -0.860251
 H         2.586630        -0.845639        -2.069938
 H         4.521313         0.530445        -0.197858
 H         4.413666         2.925031        -0.698459
 H         4.062245         2.026570        -2.184070
 H         2.485613         3.958366        -1.117745
 H         1.666662         2.655133        -1.949398
 H         2.461641         1.176802         1.528976
