19
Iteration:  1177
 C        -0.155342         0.108369        -0.327937
 C         1.382099         0.152173        -0.278582
 O         2.185411        -1.017731         0.047031
 C         2.629769        -0.247008        -1.012913
 C         3.468705         0.812514        -0.414090
 C         3.522293         2.048528        -1.440108
 C         2.299974         2.937732        -1.077129
 O         2.129094         2.616129         0.246755
 C         2.276339         1.169793         0.513123
 H        -0.355534        -0.356819         0.689610
 H        -0.397520         1.174406        -0.236078
 H        -0.571361        -0.555023        -1.080535
 H         2.716114        -0.607680        -1.989231
 H         4.484320         0.467443        -0.132754
 H         4.372704         2.742259        -1.243218
 H         3.568406         1.676981        -2.419492
 H         2.601415         3.961422        -1.136508
 H         1.431723         2.776965        -1.610162
 H         2.272041         0.810243         1.542210
