19
Iteration:   286
 C        -0.047712         0.251081        -0.240318
 C         1.421327         0.103998        -0.035687
 O         2.195453        -1.115148        -0.051517
 C         2.332693        -0.100944        -1.131138
 C         3.500725         0.782854        -0.547178
 C         3.675928         2.056447        -1.407365
 C         2.421967         2.843748        -1.098916
 O         1.948141         2.536503         0.233437
 C         2.390196         1.197593         0.648482
 H        -0.686011         0.473110         0.623311
 H        -0.157250         1.204089        -0.797607
 H        -0.546716        -0.517184        -0.848436
 H         2.187143        -0.431777        -2.279111
 H         4.312407         0.186807        -0.380855
 H         4.547207         2.760572        -1.428834
 H         3.334377         1.862530        -2.372593
 H         2.435975         3.976758        -1.034248
 H         1.630836         2.460280        -1.753235
 H         2.544582         1.105972         1.743851
