19
Iteration:  4651charge 0 multiplicity 1
 C        -0.085137         0.033018        -0.250018
 C         1.444008         0.142113        -0.125606
 O         2.206862        -1.158339         0.006323
 C         2.500893        -0.281265        -1.032060
 C         3.376941         0.856759        -0.525645
 C         3.538788         2.048083        -1.583767
 C         2.577558         3.199922        -0.941569
 O         1.910651         2.559972         0.270856
 C         2.291621         1.214639         0.493913
 H        -0.488500        -0.017113         0.719948
 H        -0.434985         0.925988        -0.842228
 H        -0.338439        -0.927642        -0.764259
 H         2.420412        -0.574650        -2.104958
 H         4.375131         0.519628        -0.260764
 H         4.545966         2.330197        -1.648179
 H         3.414285         1.645625        -2.573119
 H         3.054327         4.177030        -0.734869
 H         1.733233         3.503307        -1.566263
 H         2.336299         0.876515         1.553652
