19
Iteration:  3560charge 0 multiplicity 1
 C         0.030807         0.166387        -0.274208
 C         1.474928         0.057577        -0.109246
 O         2.179361        -1.142765         0.217374
 C         2.590168        -0.308065        -1.034367
 C         3.521451         0.822746        -0.653646
 C         3.328042         2.058601        -1.599777
 C         2.713933         3.190610        -0.750637
 O         1.693562         2.488523         0.026751
 C         2.268332         1.217145         0.430528
 H        -0.523407         0.389298         0.737838
 H        -0.158337         1.163573        -0.707856
 H        -0.546554        -0.726129        -0.772304
 H         2.782613        -0.965632        -1.845722
 H         4.541342         0.696606        -0.305801
 H         4.278890         2.241732        -2.023231
 H         2.694548         2.034888        -2.509891
 H         3.358015         3.719383        -0.043744
 H         2.213624         3.907959        -1.446838
 H         2.487350         0.982677         1.538151
