19
Iteration:   410
 C        -0.091655         0.118896        -0.236453
 C         1.400836         0.158400        -0.019508
 O         2.024352        -1.172267        -0.030609
 C         2.478475        -0.194444        -1.064454
 C         3.531223         0.735804        -0.583014
 C         3.587846         2.119926        -1.414901
 C         2.423055         3.037777        -1.068931
 O         2.006160         2.518820         0.162237
 C         2.467782         1.251697         0.601609
 H        -0.770904        -0.338033         0.478116
 H        -0.670357         1.037277        -0.402367
 H        -0.307673        -0.468797        -1.124779
 H         2.360370        -0.489857        -2.035993
 H         4.513322         0.368395        -0.137343
 H         4.608738         2.470404        -1.348231
 H         3.579039         1.865378        -2.535572
 H         2.669489         4.111443        -0.922998
 H         1.520628         3.184708        -1.672883
 H         2.674233         1.416070         1.657215
