19
Iteration:  4921charge 0 multiplicity 1
 C        -0.134842        -0.002106        -0.109051
 C         1.406493         0.078967        -0.032851
 O         2.144393        -1.191850        -0.096044
 C         2.477337        -0.275392        -1.089876
 C         3.409482         0.920001        -0.587691
 C         3.678206         2.134173        -1.432665
 C         2.591950         3.110695        -0.974748
 O         1.830873         2.541089         0.138169
 C         2.365984         1.301098         0.505383
 H        -0.459981        -0.576668         0.740864
 H        -0.740048         0.985147        -0.204228
 H        -0.333962        -0.631376        -1.001567
 H         2.199637        -0.633737        -2.136714
 H         4.395192         0.496456        -0.271880
 H         4.671572         2.448756        -1.129122
 H         3.610162         1.943951        -2.571417
 H         2.904970         4.030836        -0.490339
 H         1.980662         3.318911        -1.842964
 H         2.860785         1.262817         1.518784
