19
Iteration:  4950charge 0 multiplicity 1
 C        -0.054202         0.001316        -0.183524
 C         1.418417         0.135372        -0.136403
 O         2.188147        -1.066713        -0.058967
 C         2.450224        -0.149003        -1.217309
 C         3.434799         0.854927        -0.495471
 C         3.620111         2.026136        -1.411982
 C         2.442798         2.960365        -1.031599
 O         1.999118         2.577175         0.250352
 C         2.265666         1.266008         0.565100
 H        -0.406275        -0.548189         0.842081
 H        -0.621419         0.911480        -0.214484
 H        -0.278446        -0.640846        -0.991859
 H         1.996188        -0.491870        -2.155486
 H         4.372560         0.340775        -0.296496
 H         4.623977         2.531750        -1.337606
 H         3.672716         1.742486        -2.414037
 H         2.760866         3.985888        -0.742841
 H         1.742771         3.119870        -1.866403
 H         2.444275         1.187913         1.679649
