19
Iteration:   729
 C        -0.049468         0.154571        -0.201146
 C         1.440875         0.244129        -0.060813
 O         2.120398        -1.072660        -0.099176
 C         2.498255        -0.134201        -1.082868
 C         3.471082         0.800297        -0.487896
 C         3.666754         1.984073        -1.412125
 C         2.376511         2.853931        -1.143712
 O         1.912287         2.526646         0.243828
 C         2.371930         1.252853         0.593163
 H        -0.654991        -0.186658         0.717197
 H        -0.420840         1.183532        -0.350081
 H        -0.368754        -0.517197        -1.038927
 H         2.362598        -0.485008        -2.081349
 H         4.448595         0.354665        -0.363655
 H         4.556804         2.558324        -1.054338
 H         3.791333         1.729043        -2.472457
 H         2.675742         3.848819        -1.244083
 H         1.627500         2.725644        -1.889251
 H         2.382056         1.103241         1.641491
