19
Iteration:  1165
 C        -0.099364         0.084762        -0.283472
 C         1.396027         0.265573        -0.301381
 O         2.218777        -1.067999         0.050894
 C         2.541613        -0.204969        -1.097186
 C         3.506223         0.855846        -0.458221
 C         3.530104         1.977928        -1.415020
 C         2.362247         2.907639        -1.118691
 O         2.050394         2.603848         0.343775
 C         2.268071         1.204719         0.525883
 H        -0.492806        -0.327494         0.708536
 H        -0.779261         0.911260        -0.527150
 H        -0.397849        -0.632467        -1.101487
 H         2.590585        -0.782895        -1.962738
 H         4.476928         0.545701        -0.012666
 H         4.500506         2.452264        -1.328616
 H         3.498822         1.635626        -2.401450
 H         2.647900         3.964603        -1.122001
 H         1.582972         2.810126        -1.745979
 H         2.247913         1.202746         1.592196
