19
Iteration:  2731charge 0 multiplicity 1
 C        -0.024835         0.082956        -0.152609
 C         1.397591         0.035430        -0.179476
 O         2.191412        -1.135324         0.095334
 C         2.539486        -0.252850        -1.027042
 C         3.407453         0.882211        -0.540986
 C         3.577705         2.065666        -1.455739
 C         2.673320         3.132052        -0.910782
 O         1.657853         2.525131        -0.007181
 C         2.350033         1.216748         0.458181
 H        -0.406211        -0.553298         0.607575
 H        -0.470625         1.088595         0.003086
 H        -0.335088        -0.218232        -1.111367
 H         2.568279        -0.765819        -1.932685
 H         4.354626         0.457620        -0.060167
 H         4.650537         2.552688        -1.526972
 H         3.231776         1.924206        -2.575543
 H         3.306864         3.877726        -0.393004
 H         2.179062         3.666180        -1.654344
 H         2.506728         1.225313         1.560380
