19
Iteration:   801
 C        -0.067061         0.091219        -0.200193
 C         1.383447         0.173843        -0.139601
 O         2.166767        -1.093865         0.076815
 C         2.364659        -0.161023        -1.122379
 C         3.477015         0.801648        -0.612614
 C         3.736336         2.072853        -1.355733
 C         2.459226         2.919020        -1.110235
 O         1.918592         2.558338         0.198654
 C         2.322098         1.249096         0.557126
 H        -0.443768        -0.598275         0.468657
 H        -0.424030         1.048830         0.169913
 H        -0.416333        -0.215034        -1.152105
 H         2.179897        -0.603550        -2.066017
 H         4.409911         0.332654        -0.350233
 H         4.547722         2.612914        -0.948550
 H         3.955141         1.853823        -2.426312
 H         2.529907         4.023642        -1.259996
 H         1.854227         2.619524        -2.041762
 H         2.565474         1.180632         1.637438
