19
Iteration:  3165charge 0 multiplicity 1
 C        -0.097621         0.236006        -0.190200
 C         1.454921         0.189031        -0.102968
 O         2.108810        -1.077852        -0.062877
 C         2.560848        -0.111623        -1.113968
 C         3.526305         0.858869        -0.449665
 C         3.631416         2.178033        -1.338131
 C         2.269990         2.640064        -1.228408
 O         1.954801         2.490697         0.247472
 C         2.396315         1.224771         0.582115
 H        -0.632321        -0.061366         0.698700
 H        -0.429693         1.272867        -0.439596
 H        -0.291969        -0.493536        -0.926756
 H         2.538369        -0.425962        -2.166035
 H         4.539407         0.514727        -0.351044
 H         4.411066         2.885128        -0.974218
 H         3.946649         1.824116        -2.446659
 H         2.092680         3.652140        -1.504107
 H         1.458894         2.144152        -1.708781
 H         2.678402         0.946241         1.595125
