19
Iteration:    80
 C        -0.061189         0.156816        -0.344823
 C         1.453049         0.191713         0.061504
 O         2.142739        -1.143441        -0.070623
 C         2.302047        -0.150857        -1.068856
 C         3.415478         0.762306        -0.539289
 C         3.635474         2.018190        -1.413392
 C         2.417654         2.893925        -1.055022
 O         1.996407         2.598265         0.236939
 C         2.471247         1.263702         0.565278
 H        -0.667647        -0.085639         0.505795
 H        -0.371054         1.116532        -0.825963
 H        -0.035929        -0.702535        -1.017408
 H         1.954319        -0.462984        -2.146459
 H         4.308071         0.253331        -0.026163
 H         4.610005         2.556009        -1.184496
 H         3.549538         1.872805        -2.478119
 H         2.620280         4.008683        -1.097764
 H         1.622947         2.672826        -1.757632
 H         2.813843         1.308745         1.539380
