19
Iteration:  3857charge 0 multiplicity 1
 C        -0.059443         0.070714        -0.251090
 C         1.452951         0.071323        -0.195558
 O         2.194681        -1.126956         0.220201
 C         2.674181        -0.333949        -0.993866
 C         3.437201         0.958982        -0.683854
 C         3.309004         2.016485        -1.674818
 C         2.826611         3.121798        -0.670528
 O         1.682929         2.518734         0.038934
 C         2.248438         1.248357         0.404034
 H        -0.279313         0.415506         0.840498
 H        -0.229638         1.003935        -0.812726
 H        -0.566862        -0.751672        -0.585174
 H         2.630475        -0.833512        -1.937288
 H         4.350365         0.793013        -0.127197
 H         4.311661         2.328962        -2.212846
 H         2.552730         1.727738        -2.492355
 H         3.557436         3.445790         0.159473
 H         2.550874         4.085551        -1.023823
 H         2.637308         1.109712         1.459502
