19
Iteration:   201charge 0 multiplicity 1
 C        -0.058796         0.090661        -0.207420
 C         1.387168         0.126493        -0.039428
 O         2.102896        -1.112191        -0.019129
 C         2.363367        -0.083440        -1.083670
 C         3.483462         0.806142        -0.557444
 C         3.636900         2.034604        -1.345087
 C         2.440632         2.967122        -1.124577
 O         2.059928         2.563857         0.171312
 C         2.337767         1.212312         0.546280
 H        -0.411106        -0.457920         0.654941
 H        -0.329134         1.147118        -0.281629
 H        -0.231173        -0.428070        -1.152086
 H         2.019597        -0.396256        -2.105249
 H         4.412166         0.260421        -0.194941
 H         4.606187         2.501014        -1.074082
 H         3.767841         1.817060        -2.420782
 H         2.587925         4.072882        -1.193186
 H         1.660907         2.782226        -1.877167
 H         2.460806         1.073724         1.579250
