19
Iteration:  3391
 C        -0.012875         0.225724        -0.189715
 C         1.453263         0.199076        -0.088701
 O         2.160552        -1.125128        -0.138637
 C         2.460171        -0.132577        -1.109935
 C         3.556359         0.833394        -0.453899
 C         3.628666         2.059382        -1.241044
 C         2.204714         2.691416        -1.225220
 O         1.895891         2.519087         0.185703
 C         2.441014         1.255901         0.645023
 H        -0.475688         0.190569         0.803438
 H        -0.241003         1.285564        -0.612251
 H        -0.455467        -0.337737        -0.962218
 H         2.238190        -0.177001        -2.206166
 H         4.556306         0.295957        -0.321344
 H         4.332495         2.797658        -0.853868
 H         4.019523         1.898436        -2.255752
 H         2.238758         3.778859        -1.441290
 H         1.468332         2.338303        -1.950568
 H         2.873247         1.474737         1.641780
