19
Iteration:  1386
 C        -0.059654         0.119634        -0.112564
 C         1.441862         0.148708        -0.269083
 O         2.165541        -1.050433         0.032915
 C         2.596538        -0.250507        -1.073554
 C         3.465878         0.767015        -0.429355
 C         3.561319         2.069413        -1.409785
 C         2.475374         2.996114        -1.072779
 O         1.913266         2.543626         0.164652
 C         2.247517         1.250621         0.404883
 H        -0.416433        -0.337773         0.874606
 H        -0.545781         1.165926        -0.230230
 H        -0.624479        -0.509212        -0.859579
 H         2.691370        -0.733127        -2.070816
 H         4.432597         0.662421         0.108917
 H         4.496373         2.465555        -1.031933
 H         3.578140         1.785113        -2.389686
 H         2.810580         4.037224        -0.969646
 H         1.639957         2.818637        -1.894451
 H         2.166921         0.988582         1.475512
