19
Iteration:  1957charge 0 multiplicity 1
 C        -0.037565         0.048783        -0.339189
 C         1.372909         0.222312        -0.128102
 O         2.116736        -1.079295         0.049733
 C         2.445813        -0.136831        -1.054278
 C         3.511462         0.881422        -0.476006
 C         3.681602         2.061395        -1.375836
 C         2.336449         2.870381        -1.113606
 O         2.011800         2.551750         0.218175
 C         2.353026         1.233542         0.516828
 H        -0.401888        -0.400572         0.612992
 H        -0.830084         0.810458        -0.398917
 H        -0.129546        -0.715114        -1.175180
 H         2.537836        -0.536602        -2.050655
 H         4.428478         0.408878        -0.186626
 H         4.481236         2.691933        -1.202698
 H         3.773992         1.828273        -2.454666
 H         2.410346         3.935767        -1.023003
 H         1.510457         2.632581        -1.745273
 H         2.435237         1.063583         1.614922
