19
Iteration:  4493charge 0 multiplicity 1
 C         0.034306         0.224060        -0.254809
 C         1.447268         0.108163        -0.169718
 O         2.129952        -1.162114        -0.054499
 C         2.505702        -0.210045        -1.150493
 C         3.482095         0.906733        -0.506517
 C         3.532276         2.088855        -1.365473
 C         2.272926         2.847519        -1.118461
 O         2.029854         2.579148         0.359650
 C         2.339425         1.211652         0.540307
 H        -0.541733        -0.064323         0.714215
 H        -0.233900         1.190767        -0.608554
 H        -0.405218        -0.558893        -0.962055
 H         2.572672        -0.722962        -2.161213
 H         4.496650         0.658760        -0.071909
 H         4.346089         2.690753        -0.998776
 H         3.820467         1.903103        -2.396864
 H         2.271288         3.939277        -1.214548
 H         1.382185         2.725794        -1.759099
 H         2.603414         0.885104         1.513604
