19
Iteration:   263charge 0 multiplicity 1
 C        -0.042141         0.197974        -0.162716
 C         1.428748         0.197287        -0.126221
 O         2.020560        -1.139211        -0.048452
 C         2.445148        -0.312216        -1.091781
 C         3.482588         0.870403        -0.561958
 C         3.671192         2.019529        -1.391192
 C         2.353295         2.967645        -1.089387
 O         2.016939         2.546826         0.233740
 C         2.408307         1.206342         0.491273
 H        -0.514229         0.028180         0.826687
 H        -0.537624         1.122837        -0.493921
 H        -0.384343        -0.614969        -0.814070
 H         2.558508        -0.695570        -2.200220
 H         4.396848         0.649008        -0.152738
 H         4.351671         2.689333        -0.792704
 H         3.971790         2.046443        -2.388121
 H         2.544641         4.083779        -0.968722
 H         1.472135         2.783949        -1.711194
 H         2.807448         1.061040         1.542092
