19
Iteration:  4890
 C        -0.067746         0.100840        -0.006705
 C         1.446215         0.039153        -0.157689
 O         2.218840        -1.058347         0.008222
 C         2.458700        -0.238839        -1.133667
 C         3.367194         0.840455        -0.645925
 C         3.654440         2.129030        -1.341880
 C         2.681113         3.173611        -0.851219
 O         1.718078         2.430915         0.008410
 C         2.276328         1.174398         0.387501
 H        -0.263193        -0.267781         0.894909
 H        -0.519558         1.138387        -0.198469
 H        -0.541931        -0.680252        -0.664168
 H         2.512444        -0.820593        -2.113108
 H         4.353219         0.416875        -0.305428
 H         4.700592         2.356287        -1.193566
 H         3.483573         1.972841        -2.498215
 H         2.937003         4.059696        -0.150710
 H         2.134546         3.532064        -1.817887
 H         2.643228         1.148651         1.397408
