19
Iteration:  3257
 C        -0.056081        -0.105860        -0.249725
 C         1.384670         0.113926        -0.161850
 O         2.145406        -1.052256         0.056853
 C         2.503698        -0.311739        -1.088271
 C         3.400371         0.849479        -0.568172
 C         3.624992         2.011466        -1.480374
 C         2.421060         3.064691        -0.989670
 O         2.036385         2.667830         0.314701
 C         2.272232         1.333871         0.435019
 H        -0.538824        -0.211868         0.745789
 H        -0.459505         0.815551        -0.644576
 H        -0.188943        -1.051936        -0.818761
 H         2.688566        -0.778024        -2.074820
 H         4.392718         0.463660        -0.065402
 H         4.669357         2.454755        -1.487102
 H         3.440210         1.892146        -2.526173
 H         2.872008         4.085049        -1.026429
 H         1.613052         3.151028        -1.723103
 H         2.225671         1.310193         1.549374
