19
Iteration:   817charge 0 multiplicity 1
 C        -0.110483         0.136502        -0.175977
 C         1.364541         0.051925         0.041366
 O         2.198543        -1.139669        -0.082400
 C         2.437237        -0.225155        -1.060653
 C         3.426388         0.845977        -0.507693
 C         3.689853         2.080403        -1.393910
 C         2.465842         2.904926        -1.162335
 O         1.963128         2.617021         0.165702
 C         2.339733         1.270401         0.518638
 H        -0.789963        -0.556103         0.561927
 H        -0.516077         1.180342        -0.190619
 H        -0.271088        -0.300655        -1.238710
 H         2.339115        -0.394087        -2.200881
 H         4.302187         0.385085         0.019975
 H         4.712590         2.525981        -1.077119
 H         3.881330         1.901384        -2.476395
 H         2.586694         3.991758        -1.073623
 H         1.573540         2.945964        -1.736146
 H         2.474558         1.344330         1.596581
