19
Iteration:  1223
 C        -0.022708         0.245522        -0.392831
 C         1.500625         0.171986        -0.039075
 O         2.127710        -1.075197         0.075772
 C         2.518290        -0.221573        -1.057382
 C         3.493443         0.747333        -0.567038
 C         3.560585         2.117654        -1.380097
 C         2.214785         2.868284        -1.115914
 O         1.951191         2.460205         0.236193
 C         2.443279         1.253339         0.531277
 H        -0.638207        -0.330419         0.304542
 H        -0.122996         1.347909        -0.314981
 H        -0.039715        -0.148299        -1.394949
 H         2.138731        -0.681843        -2.024558
 H         4.471179         0.458698        -0.152017
 H         4.426179         2.574987        -0.826977
 H         3.745282         2.047118        -2.490099
 H         2.326003         3.908391        -1.040702
 H         1.443732         2.618143        -1.806035
 H         2.722274         1.294229         1.643529
