19
Iteration:  3356charge 0 multiplicity 1
 C        -0.029768         0.307109        -0.177645
 C         1.507803         0.161921        -0.189477
 O         2.134280        -1.178377        -0.051984
 C         2.541901        -0.177611        -1.088478
 C         3.518980         0.849093        -0.508647
 C         3.661235         2.219892        -1.331234
 C         2.237491         2.721925        -1.192128
 O         1.897017         2.478046         0.207735
 C         2.336142         1.200479         0.591576
 H        -0.413948         0.354540         0.863540
 H        -0.046543         1.386207        -0.405831
 H        -0.656471        -0.321442        -0.736213
 H         2.309928        -0.562172        -2.043714
 H         4.559423         0.562053        -0.084570
 H         4.563298         2.883246        -0.996521
 H         3.829271         1.740307        -2.295478
 H         2.181051         3.832994        -1.233061
 H         1.558212         2.256240        -1.882943
 H         2.563543         1.116777         1.702351
