19
Iteration:  1304
 C        -0.109097         0.034029        -0.061811
 C         1.357350         0.174187        -0.159553
 O         2.158151        -1.062195        -0.039001
 C         2.472438        -0.162228        -1.121028
 C         3.474916         0.835610        -0.544479
 C         3.796799         2.173153        -1.265417
 C         2.394451         2.797124        -1.099804
 O         1.938832         2.595512         0.138794
 C         2.286898         1.233298         0.444565
 H        -0.490289         0.025805         0.920564
 H        -0.714372         0.725344        -0.583922
 H        -0.333933        -0.927786        -0.536118
 H         2.422850        -0.647347        -2.031691
 H         4.361377         0.352588        -0.151018
 H         4.663468         2.729216        -0.914865
 H         4.171370         1.972802        -2.350246
 H         2.522144         3.919782        -1.249497
 H         1.685373         2.526960        -1.934987
 H         2.309089         1.217684         1.552938
