19
Iteration:  2387charge 0 multiplicity 1
 C        -0.062688         0.103779        -0.228225
 C         1.374361         0.167919        -0.191548
 O         2.086072        -1.110854        -0.072999
 C         2.563640        -0.118361        -1.046134
 C         3.501675         0.861658        -0.436212
 C         3.674282         2.127593        -1.372556
 C         2.323821         2.759313        -1.233540
 O         1.988596         2.567452         0.286699
 C         2.315172         1.292335         0.581864
 H        -0.384627        -0.180784         0.772134
 H        -0.526988         1.038362        -0.461041
 H        -0.514244        -0.697109        -0.892026
 H         2.682220        -0.311588        -2.069238
 H         4.416881         0.450325         0.035205
 H         4.615198         2.639424        -1.136968
 H         3.996069         1.649627        -2.444065
 H         2.368618         3.877071        -1.148552
 H         1.502041         2.441319        -1.883725
 H         2.599381         0.906570         1.557269
