19
Iteration:   862charge 0 multiplicity 1
 C        -0.054096         0.156793        -0.148856
 C         1.469858         0.262225        -0.213460
 O         2.097924        -1.014790        -0.005388
 C         2.542948        -0.249742        -1.105781
 C         3.499292         0.845912        -0.505771
 C         3.645089         2.033261        -1.374472
 C         2.360725         2.854827        -1.063238
 O         1.934395         2.518171         0.258502
 C         2.313024         1.216321         0.430273
 H        -0.487987         0.257403         0.960460
 H        -0.413561         0.996345        -0.820737
 H        -0.500464        -0.706357        -0.767320
 H         2.544858        -0.986324        -1.972393
 H         4.393825         0.391447         0.020455
 H         4.625492         2.632114        -1.178583
 H         3.741735         1.841121        -2.449245
 H         2.451167         3.982761        -1.134500
 H         1.538706         2.621099        -1.794291
 H         2.501357         0.930407         1.494353
