19
Iteration:  2193charge 0 multiplicity 1
 C        -0.061752         0.263553        -0.135090
 C         1.452689         0.079200        -0.149364
 O         2.157880        -1.134443         0.017969
 C         2.555804        -0.265263        -1.155125
 C         3.388198         0.836930        -0.529441
 C         3.705080         2.217491        -1.265620
 C         2.384213         2.951341        -1.159019
 O         1.846621         2.445435         0.125979
 C         2.377775         1.176435         0.488953
 H        -0.468217         0.067433         0.867274
 H        -0.463964         1.261039        -0.297091
 H        -0.595988        -0.497198        -0.846762
 H         2.267502        -0.719198        -2.069849
 H         4.406145         0.516611        -0.091694
 H         4.517731         2.924768        -0.802180
 H         4.057200         1.943764        -2.247083
 H         2.553803         4.000607        -0.922832
 H         1.690358         2.884612        -1.975154
 H         2.572207         0.962112         1.563629
