19
Iteration:  3502charge 0 multiplicity 1
 C        -0.042259        -0.088754        -0.303972
 C         1.433043         0.157017        -0.082498
 O         2.166128        -1.049447         0.098502
 C         2.462902        -0.286492        -1.075068
 C         3.429776         0.858428        -0.502178
 C         3.465204         2.018926        -1.559027
 C         2.603509         3.135974        -0.932448
 O         1.915425         2.576464         0.168450
 C         2.324555         1.255886         0.479886
 H        -0.424408        -0.016720         0.689863
 H        -0.362636         0.795004        -0.914898
 H        -0.377528        -1.054639        -0.815206
 H         2.349246        -0.718233        -2.126647
 H         4.302126         0.684457         0.105417
 H         4.536816         2.264964        -1.664215
 H         2.981663         1.782629        -2.551306
 H         3.187413         3.953961        -0.527058
 H         1.896317         3.515756        -1.682361
 H         2.717530         1.195216         1.553465
