19
Iteration:  4683charge 0 multiplicity 1
 C        -0.044996         0.198239        -0.302727
 C         1.434651         0.078304        -0.176943
 O         2.171232        -1.071438         0.204392
 C         2.582462        -0.353456        -1.054285
 C         3.533016         0.804073        -0.648471
 C         3.415198         2.065798        -1.581620
 C         2.546363         3.232603        -0.832455
 O         1.800920         2.447875         0.238611
 C         2.400610         1.139986         0.410730
 H        -0.631610         0.200330         0.571770
 H        -0.382807         1.200392        -0.848021
 H        -0.532479        -0.575013        -0.954749
 H         2.582315        -0.890296        -2.042471
 H         4.591159         0.574898        -0.429200
 H         4.324486         2.559263        -1.699462
 H         3.025522         1.790479        -2.556040
 H         3.177753         3.967792        -0.315033
 H         1.658671         3.716074        -1.406093
 H         2.459192         0.883562         1.459749
