19
Iteration:   259
 C        -0.010860         0.174457        -0.136157
 C         1.415068         0.207782        -0.175735
 O         1.994513        -1.132065        -0.023771
 C         2.461696        -0.335123        -1.137987
 C         3.432554         0.880775        -0.548581
 C         3.669349         2.065533        -1.367251
 C         2.353020         2.980570        -1.107517
 O         2.060299         2.541118         0.226726
 C         2.395703         1.206711         0.484897
 H        -0.387072        -0.032123         0.892074
 H        -0.480594         1.117208        -0.432384
 H        -0.366755        -0.576505        -0.855421
 H         2.560503        -0.812943        -2.025487
 H         4.463714         0.588939        -0.035473
 H         4.278538         2.707740        -0.771519
 H         3.963894         2.013311        -2.480199
 H         2.562405         3.992659        -0.902350
 H         1.473763         2.747780        -1.710233
 H         2.688337         0.983080         1.559098
