19
Iteration:  1484charge 0 multiplicity 1
 C        -0.096442         0.251463        -0.316857
 C         1.451392         0.115085        -0.251136
 O         2.150475        -1.115626         0.049059
 C         2.585994        -0.306301        -1.060314
 C         3.501338         0.853328        -0.368687
 C         3.584153         2.110710        -1.449481
 C         2.227541         2.847952        -1.115164
 O         2.067181         2.596591         0.311026
 C         2.338514         1.215267         0.488251
 H        -0.693974         0.374557         0.617592
 H        -0.378236         1.172598        -0.873594
 H        -0.566588        -0.641870        -0.779179
 H         2.842452        -0.798593        -1.965679
 H         4.451584         0.418076        -0.000882
 H         4.355537         2.834876        -1.182172
 H         3.623956         1.831295        -2.466819
 H         2.207090         3.861592        -1.437214
 H         1.382878         2.447404        -1.728298
 H         2.425218         1.198300         1.573714
