19
Iteration:  3340
 C        -0.051043         0.292502        -0.150859
 C         1.436912         0.111584        -0.170174
 O         2.161623        -1.110404        -0.007772
 C         2.581526        -0.261913        -1.115070
 C         3.522770         0.809689        -0.492167
 C         3.593063         2.070496        -1.324902
 C         2.247461         2.874284        -1.133561
 O         1.916540         2.580267         0.234458
 C         2.363796         1.187920         0.442530
 H        -0.322767         0.009158         0.856033
 H        -0.390720         1.273508        -0.555109
 H        -0.480468        -0.463538        -0.932141
 H         2.734410        -0.691679        -2.149483
 H         4.449711         0.436370        -0.183101
 H         4.271755         2.710347        -0.731746
 H         3.919950         2.134520        -2.392971
 H         2.436548         3.926962        -1.301844
 H         1.440242         2.418986        -1.798946
 H         2.590101         1.154898         1.524870
