19
Iteration:   243
 C        -0.072095         0.145941        -0.109272
 C         1.403445         0.137628        -0.307511
 O         2.023670        -1.066599         0.048230
 C         2.518818        -0.298590        -1.118470
 C         3.499105         0.720955        -0.570569
 C         3.663254         2.189964        -1.340775
 C         2.396161         2.943016        -1.080507
 O         2.094414         2.629536         0.292199
 C         2.264072         1.173199         0.401834
 H        -0.210740        -0.262497         0.901122
 H        -0.574677         1.134193        -0.040252
 H        -0.687040        -0.547977        -0.704768
 H         2.502630        -0.787609        -2.221996
 H         4.444675         0.308940        -0.235317
 H         4.619955         2.685620        -0.985402
 H         3.810448         2.032910        -2.408246
 H         2.435188         4.071320        -1.276062
 H         1.590337         2.593697        -1.810940
 H         2.343190         1.066825         1.469562
