19
Iteration:  3153charge 0 multiplicity 1
 C        -0.020464         0.193102        -0.198945
 C         1.450856         0.197561        -0.193929
 O         2.101104        -1.097968        -0.054685
 C         2.510516        -0.066209        -1.102570
 C         3.578510         0.881030        -0.496224
 C         3.685832         2.060268        -1.336660
 C         2.178523         2.682937        -1.137101
 O         1.959681         2.565915         0.237799
 C         2.381025         1.207877         0.558352
 H        -0.185452        -0.206933         0.812827
 H        -0.591463         1.187620        -0.310442
 H        -0.503044        -0.385457        -0.922303
 H         2.477697        -0.539507        -2.069810
 H         4.360058         0.348994         0.003002
 H         4.375508         2.827628        -0.969421
 H         3.978393         1.736968        -2.493889
 H         2.083249         3.742306        -1.331812
 H         1.656585         2.027090        -1.795127
 H         2.435225         1.343245         1.661793
