19
Iteration:   913charge 0 multiplicity 1
 C        -0.042053         0.160207        -0.408552
 C         1.475023         0.159292        -0.055917
 O         2.092997        -1.134629         0.061948
 C         2.458223        -0.234915        -1.077895
 C         3.446047         0.808534        -0.531187
 C         3.572820         2.101991        -1.392676
 C         2.335412         2.888091        -1.067497
 O         2.021707         2.623997         0.285364
 C         2.453722         1.240206         0.534675
 H        -0.596669         0.359930         0.488371
 H        -0.373777         0.790552        -1.207182
 H        -0.412783        -0.854767        -0.618203
 H         2.186051        -0.704027        -2.118013
 H         4.388492         0.244776        -0.402638
 H         4.520950         2.640218        -1.105060
 H         3.743509         1.908821        -2.477691
 H         2.250526         3.960399        -1.222306
 H         1.437958         2.680971        -1.770252
 H         2.868364         1.110193         1.507360
