19
Iteration:  3963charge 0 multiplicity 1
 C        -0.211423        -0.162117        -0.060752
 C         1.335173         0.092646        -0.226240
 O         2.201114        -1.081521        -0.013532
 C         2.524670        -0.225303        -1.057766
 C         3.389035         0.901473        -0.567295
 C         3.702784         2.054751        -1.477307
 C         2.618220         3.093473        -1.065836
 O         1.905069         2.638033         0.207555
 C         2.307225         1.298320         0.473195
 H        -0.385894        -0.686284         0.883742
 H        -0.620872         0.916596         0.219365
 H        -0.923837        -0.644272        -0.861909
 H         2.621080        -0.551803        -2.104439
 H         4.338833         0.438171        -0.246010
 H         4.626590         2.290347        -1.028929
 H         3.932387         1.791337        -2.491851
 H         2.836889         4.087936        -0.720504
 H         1.783859         3.182452        -1.878200
 H         2.338152         1.082820         1.533178
