19
Iteration:  4356
 C        -0.038926         0.174147        -0.214474
 C         1.460282         0.025212        -0.114825
 O         2.204042        -1.153049         0.070575
 C         2.492240        -0.303601        -1.108819
 C         3.442331         0.768455        -0.667225
 C         3.591974         2.206971        -1.393952
 C         2.470033         3.129703        -0.934431
 O         1.796175         2.500766         0.185821
 C         2.323523         1.188557         0.479016
 H        -0.595911        -0.132795         0.660407
 H        -0.175954         1.317259        -0.503280
 H        -0.296056        -0.333552        -1.121601
 H         2.393394        -0.838430        -2.101060
 H         4.464147         0.348733        -0.574509
 H         4.626354         2.533726        -1.041861
 H         3.603254         2.096145        -2.530127
 H         2.822438         4.138896        -0.648640
 H         1.836914         3.400563        -1.732478
 H         2.647741         1.068070         1.582321
