19
Iteration:  4398
 C        -0.043777         0.057963        -0.272930
 C         1.427412         0.083062        -0.134083
 O         2.140113        -1.148994        -0.087980
 C         2.622751        -0.178552        -1.064098
 C         3.480416         0.855710        -0.535284
 C         3.485879         2.008676        -1.506172
 C         2.505947         3.117206        -0.907257
 O         1.948397         2.549935         0.294890
 C         2.232889         1.217683         0.515960
 H        -0.369077         0.031792         0.716235
 H        -0.325953         1.124888        -0.590491
 H        -0.630097        -0.737037        -0.731534
 H         2.736777        -0.680148        -2.085820
 H         4.528287         0.673156        -0.148118
 H         4.530522         2.409967        -1.656184
 H         3.158895         1.684286        -2.563033
 H         2.819419         4.179451        -0.843973
 H         1.664981         3.177518        -1.635936
 H         2.167811         1.219931         1.707685
