19
Iteration:    62
 C        -0.200355         0.203248        -0.232379
 C         1.331325         0.164424        -0.128273
 O         2.304687        -1.076517         0.011548
 C         2.430996        -0.178599        -1.075117
 C         3.466973         0.780432        -0.613547
 C         3.677207         1.973787        -1.449593
 C         2.476131         2.901389        -1.064718
 O         1.964319         2.579252         0.329257
 C         2.307401         1.227232         0.535828
 H        -0.820714        -0.064550         0.664413
 H        -0.397845         1.254361        -0.537991
 H        -0.569174        -0.316601        -1.142099
 H         2.314700        -0.509515        -2.074915
 H         4.423957         0.230623        -0.411014
 H         4.635852         2.451366        -1.297729
 H         3.637272         1.624330        -2.530541
 H         2.758526         3.947438        -1.045731
 H         1.600981         2.835451        -1.777343
 H         2.476413         1.085562         1.673223
