19
Iteration:   445charge 0 multiplicity 1
 C        -0.170462         0.243595        -0.069244
 C         1.403236         0.123144        -0.289790
 O         2.236985        -1.074513        -0.014376
 C         2.523777        -0.276082        -1.151176
 C         3.309908         0.798208        -0.581364
 C         3.680756         2.043024        -1.369539
 C         2.451918         2.946154        -1.058845
 O         2.025154         2.563961         0.288309
 C         2.273998         1.242314         0.431411
 H        -0.315010         0.048011         1.004733
 H        -0.390174         1.213591        -0.456910
 H        -0.554605        -0.531740        -0.707815
 H         2.589809        -0.898790        -2.061883
 H         4.157083         0.460678         0.195047
 H         4.584461         2.488090        -0.956859
 H         3.691083         1.852310        -2.504537
 H         2.628851         4.022893        -0.900475
 H         1.656337         2.630728        -1.783200
 H         2.318307         0.886329         1.477525
