19
Iteration:  3763charge 0 multiplicity 1
 C        -0.044955        -0.036618        -0.128190
 C         1.399406         0.102019        -0.171136
 O         2.211706        -1.144950         0.049819
 C         2.517917        -0.362919        -1.083571
 C         3.372697         0.840317        -0.561278
 C         3.498372         2.034419        -1.505606
 C         2.696374         3.163811        -0.901199
 O         1.812948         2.662311         0.104337
 C         2.260646         1.295068         0.462800
 H        -0.452891        -0.327189         0.886240
 H        -0.537148         0.859632        -0.444521
 H        -0.467198        -0.810541        -0.923079
 H         2.826072        -0.810848        -2.038634
 H         4.383366         0.652772        -0.111646
 H         4.500698         2.418031        -1.685371
 H         3.056783         1.775615        -2.441222
 H         3.476818         3.735008        -0.377192
 H         2.263543         3.947996        -1.585918
 H         2.376931         1.292602         1.540639
