19
Iteration:  3048
 C        -0.077566        -0.020012        -0.159818
 C         1.374124         0.104310        -0.172042
 O         2.176289        -1.160625         0.028823
 C         2.516481        -0.225152        -1.041905
 C         3.393314         0.894683        -0.511547
 C         3.668343         2.135570        -1.526286
 C         2.641742         3.096266        -0.938409
 O         1.830593         2.580111         0.130618
 C         2.238821         1.208876         0.489942
 H        -0.477770         0.164822         0.878981
 H        -0.540543         0.814355        -0.715084
 H        -0.454772        -1.105878        -0.411297
 H         2.632581        -0.750296        -2.012618
 H         4.302036         0.233725        -0.241729
 H         4.685005         2.572915        -1.636831
 H         3.339957         1.793035        -2.430807
 H         2.928663         4.137326        -0.701704
 H         1.931397         3.282447        -1.807237
 H         2.709507         1.256218         1.478738
