19
Iteration:  3685charge 0 multiplicity 1
 C        -0.016570        -0.020155        -0.106707
 C         1.439740        -0.006875         0.010455
 O         2.231219        -1.124661         0.075008
 C         2.420214        -0.277217        -1.156516
 C         3.402629         0.845072        -0.618044
 C         3.526669         2.087293        -1.541698
 C         2.816247         3.213547        -0.742134
 O         1.705907         2.515890        -0.110306
 C         2.226423         1.317939         0.467768
 H        -0.573128        -0.003456         0.921358
 H        -0.372414         0.866473        -0.687601
 H        -0.424917        -0.923369        -0.592161
 H         2.303278        -0.817469        -2.132493
 H         4.368688         0.452806        -0.128877
 H         4.571742         2.516352        -1.468220
 H         3.248366         1.961463        -2.539436
 H         3.541370         3.698334        -0.046389
 H         2.350495         3.942776        -1.410225
 H         2.433767         1.569613         1.511861
