19
Iteration:    24charge 0 multiplicity 1
 C        -0.084153         0.193318        -0.070524
 C         1.435787         0.241943        -0.347781
 O         1.923380        -1.178830         0.019511
 C         2.594884        -0.480719        -1.017580
 C         3.563167         0.763652        -0.627992
 C         3.666306         2.113747        -1.387227
 C         2.364699         3.024092        -1.098747
 O         1.949262         2.671669         0.309488
 C         2.400527         1.230085         0.434369
 H        -0.270457        -0.284654         0.877540
 H        -0.590167         1.185461        -0.074249
 H        -0.518853        -0.431603        -0.851266
 H         2.643637        -0.951482        -2.058646
 H         4.539247         0.348723        -0.242631
 H         4.576794         2.620855        -0.956649
 H         3.806604         2.122490        -2.450778
 H         2.670154         4.104097        -1.082396
 H         1.579149         2.864825        -1.824393
 H         2.534898         0.947578         1.415972
