19
Iteration:  2807
 C        -0.150589        -0.143536        -0.186580
 C         1.360930         0.101590        -0.179415
 O         2.244340        -1.111959         0.112109
 C         2.557604        -0.328059        -1.047805
 C         3.382263         0.961490        -0.567730
 C         3.457142         2.028004        -1.491176
 C         2.947109         3.235942        -0.768304
 O         1.736949         2.541263        -0.015092
 C         2.228386         1.296451         0.364256
 H        -0.435678         0.109937         0.843832
 H        -0.830689         0.559177        -0.860468
 H        -0.531969        -1.135576        -0.233652
 H         2.549805        -0.930500        -1.899743
 H         4.456388         0.723532        -0.127817
 H         4.487956         2.351854        -1.862211
 H         2.739918         2.197813        -2.440875
 H         3.664677         3.494405        -0.006119
 H         2.557811         4.056899        -1.289324
 H         2.475376         1.323601         1.466520
