19
Iteration:  2189
 C        -0.019701         0.241039        -0.142497
 C         1.466202         0.088671        -0.142152
 O         2.134755        -1.134341         0.000196
 C         2.529514        -0.224641        -1.098992
 C         3.406270         0.857177        -0.522388
 C         3.712124         2.203555        -1.276623
 C         2.383749         2.921723        -1.140061
 O         1.852675         2.461795         0.118867
 C         2.338665         1.127598         0.454331
 H        -0.427091         0.007067         0.900846
 H        -0.483041         1.301110        -0.225019
 H        -0.481076        -0.474336        -0.806986
 H         2.346930        -0.610754        -2.138433
 H         4.366758         0.628870        -0.100960
 H         4.446051         2.757365        -0.782724
 H         3.984028         1.927758        -2.307591
 H         2.596405         4.019736        -0.901218
 H         1.687893         2.915945        -2.035539
 H         2.594370         1.141514         1.538045
