19
Iteration:   293
 C        -0.021644         0.284815        -0.254047
 C         1.431402         0.114023        -0.011750
 O         2.222916        -1.086651        -0.067677
 C         2.308127        -0.089160        -1.140511
 C         3.439374         0.857416        -0.539780
 C         3.672167         2.007863        -1.421587
 C         2.383616         2.828159        -1.059943
 O         1.984775         2.490041         0.249490
 C         2.332526         1.171013         0.632471
 H        -0.634105         0.462806         0.669500
 H        -0.055334         1.186839        -0.877477
 H        -0.476184        -0.549367        -0.801399
 H         2.213938        -0.423348        -2.174673
 H         4.398023         0.288787        -0.282734
 H         4.624356         2.589767        -1.416546
 H         3.682716         1.708980        -2.557536
 H         2.404716         3.901522        -1.246181
 H         1.583656         2.586032        -1.785094
 H         2.625454         1.145388         1.743846
