19
Iteration:  4763
 C        -0.050900        -0.128264        -0.319055
 C         1.419052         0.064343        -0.164998
 O         2.133129        -1.080307         0.160594
 C         2.542235        -0.325622        -1.036661
 C         3.379998         0.889180        -0.624234
 C         3.393781         2.086627        -1.671016
 C         2.813393         3.198406        -0.718446
 O         1.854808         2.613924         0.160567
 C         2.283132         1.283774         0.421242
 H        -0.459334        -0.404849         0.756872
 H        -0.569630         0.799802        -0.427597
 H        -0.444403        -0.860139        -1.068879
 H         2.684161        -1.008808        -1.895799
 H         4.342936         0.549808        -0.272783
 H         4.350668         2.338679        -2.176922
 H         2.667164         1.860517        -2.458781
 H         3.734312         3.649900        -0.117375
 H         2.283154         4.071578        -1.043069
 H         2.464706         1.093107         1.553673
