19
Iteration:  3345charge 0 multiplicity 1
 C        -0.042034         0.318091        -0.183253
 C         1.441076         0.092388        -0.150404
 O         2.153673        -1.140904        -0.009972
 C         2.582174        -0.222817        -1.114345
 C         3.541135         0.829042        -0.514613
 C         3.582980         2.087723        -1.296542
 C         2.251178         2.831743        -1.170918
 O         1.898353         2.569528         0.239738
 C         2.412218         1.193205         0.449971
 H        -0.340733         0.086563         0.868823
 H        -0.440177         1.302083        -0.421440
 H        -0.579694        -0.395966        -0.757999
 H         2.634688        -0.594574        -2.114001
 H         4.495475         0.383101        -0.051711
 H         4.346574         2.809445        -0.814785
 H         3.900167         2.055190        -2.340034
 H         2.304911         3.934081        -1.346652
 H         1.493207         2.473155        -1.848454
 H         2.364551         0.977068         1.540725
