19
Iteration:  3555
 C        -0.029810         0.190266        -0.259319
 C         1.487802         0.025749        -0.110753
 O         2.170830        -1.151523         0.216253
 C         2.621535        -0.293863        -1.040114
 C         3.467333         0.877782        -0.637413
 C         3.344655         2.084525        -1.590423
 C         2.698592         3.173937        -0.778654
 O         1.718686         2.468705         0.059836
 C         2.285700         1.188146         0.398141
 H        -0.350735         0.363864         0.724536
 H        -0.156470         1.115464        -0.844981
 H        -0.504265        -0.617603        -0.744862
 H         2.925841        -1.049610        -1.813547
 H         4.511317         0.637286        -0.330408
 H         4.409433         2.105327        -2.016489
 H         2.626215         1.972667        -2.449870
 H         3.336120         3.776848        -0.099468
 H         2.248002         3.876165        -1.470435
 H         2.437112         1.222515         1.482667
