19
Iteration:   369charge 0 multiplicity 1
 C        -0.155496         0.230160        -0.215230
 C         1.437794         0.146592        -0.164184
 O         2.212506        -1.047100         0.017443
 C         2.459503        -0.239091        -1.158116
 C         3.465151         0.742630        -0.585319
 C         3.620938         1.992660        -1.369992
 C         2.351043         2.925322        -1.014302
 O         2.064754         2.606270         0.265809
 C         2.291525         1.220712         0.541241
 H        -0.442251        -0.307335         0.722509
 H        -0.436332         1.278768        -0.374828
 H        -0.474997        -0.365158        -1.083279
 H         2.475857        -0.701523        -2.175275
 H         4.486860         0.097206        -0.464555
 H         4.497644         2.633055        -1.241866
 H         3.688047         1.846666        -2.517938
 H         2.467855         4.049632        -1.025234
 H         1.511200         2.695285        -1.820524
 H         2.384057         1.046751         1.677249
