19
Iteration:    88
 C         0.033231         0.134249        -0.291487
 C         1.442117         0.152904         0.026438
 O         2.027817        -1.160129        -0.045419
 C         2.353208        -0.139096        -1.070473
 C         3.388771         0.814060        -0.552247
 C         3.628699         2.069840        -1.382719
 C         2.398329         2.922313        -1.141416
 O         2.034802         2.567607         0.248642
 C         2.474294         1.243085         0.601427
 H        -0.731580        -0.062278         0.450855
 H        -0.262577         0.965817        -0.923316
 H        -0.015679        -0.676602        -1.029683
 H         2.074923        -0.273771        -2.127318
 H         4.278412         0.287151        -0.364788
 H         4.578645         2.562471        -1.127413
 H         3.715335         1.739500        -2.408073
 H         2.596475         4.005173        -1.168797
 H         1.570049         2.748639        -1.838686
 H         2.803556         1.259641         1.651733
