19
Iteration:  4885charge 0 multiplicity 1
 C        -0.095714         0.115113        -0.005562
 C         1.437632         0.080642        -0.165811
 O         2.252301        -1.050845         0.001456
 C         2.489640        -0.309852        -1.173506
 C         3.335096         0.867085        -0.675261
 C         3.660411         2.097165        -1.332512
 C         2.682037         3.131130        -0.809509
 O         1.690592         2.413955        -0.001132
 C         2.302482         1.229669         0.389012
 H        -0.415426        -0.233562         1.121955
 H        -0.549481         1.066360        -0.200152
 H        -0.553211        -0.664058        -0.594019
 H         2.582692        -0.708379        -2.157890
 H         4.282939         0.525252        -0.275769
 H         4.739799         2.374011        -1.281816
 H         3.543740         1.929047        -2.377504
 H         3.049939         3.962610        -0.248905
 H         2.170916         3.573161        -1.613252
 H         2.548704         1.273559         1.517768
