19
Iteration:  4121charge 0 multiplicity 1
 C        -0.067707        -0.031557        -0.472031
 C         1.376313         0.136697        -0.184944
 O         2.211518        -1.098452         0.127354
 C         2.444483        -0.370990        -1.029510
 C         3.387340         0.833936        -0.689947
 C         3.490233         2.100396        -1.544548
 C         2.432748         3.044658        -0.938946
 O         2.094580         2.697686         0.442907
 C         2.347103         1.293413         0.554664
 H        -0.775256         0.024332         0.524960
 H        -0.459606         0.677556        -1.141052
 H        -0.222058        -0.987550        -1.088552
 H         2.507075        -0.914423        -2.075655
 H         4.380555         0.487114        -0.361925
 H         4.410617         2.534064        -1.015536
 H         3.582804         2.059960        -2.672962
 H         2.900599         4.085747        -0.979223
 H         1.436859         2.873217        -1.563334
 H         2.652923         0.945528         1.557569
