19
Iteration:  1669
 C        -0.066083         0.173178        -0.261929
 C         1.390193         0.146933        -0.041171
 O         2.156951        -1.075320         0.064511
 C         2.485736        -0.170619        -1.081866
 C         3.481384         0.833134        -0.657461
 C         3.755179         2.187257        -1.335417
 C         2.412038         2.891872        -1.174320
 O         1.861280         2.485614         0.191962
 C         2.319087         1.166183         0.546616
 H        -0.393734         0.048595         0.710038
 H        -0.406327         1.099380        -0.637620
 H        -0.368129        -0.767846        -0.712747
 H         2.335375        -0.704213        -1.947009
 H         4.362464         0.289690        -0.215562
 H         4.422103         2.666055        -0.601207
 H         4.152441         2.024064        -2.376735
 H         2.250502         3.981496        -1.269008
 H         1.800578         2.429737        -1.972250
 H         2.455197         1.079678         1.615857
