19
Iteration:  2046
 C         0.040720         0.234214        -0.328362
 C         1.486062         0.137871        -0.111137
 O         2.127136        -1.133630        -0.013469
 C         2.580766        -0.240388        -1.049648
 C         3.542641         0.857080        -0.397078
 C         3.461281         2.019715        -1.458955
 C         2.356367         2.983251        -1.086097
 O         1.854444         2.515534         0.220605
 C         2.361729         1.183090         0.569390
 H        -0.506145         0.624433         0.619955
 H        -0.170784         1.139610        -1.059157
 H        -0.253795        -0.776011        -0.663235
 H         2.508067        -0.464131        -2.111617
 H         4.532960         0.574231        -0.145938
 H         4.397668         2.458504        -1.388147
 H         3.281309         1.544296        -2.451199
 H         2.751577         4.019558        -0.977745
 H         1.634198         2.985326        -1.881800
 H         2.397176         1.124258         1.723912
