19
Iteration:  4218charge 0 multiplicity 1
 C        -0.081651         0.218765        -0.241389
 C         1.445047         0.066174        -0.094213
 O         2.184483        -1.175016        -0.007995
 C         2.501499        -0.202329        -1.079913
 C         3.502527         0.838307        -0.579135
 C         3.666537         2.157965        -1.412699
 C         2.387960         3.024533        -0.953159
 O         1.773155         2.436351         0.191138
 C         2.430111         1.188551         0.464650
 H        -0.590614         0.074405         0.763707
 H        -0.274237         1.227128        -0.423448
 H        -0.552822        -0.233927        -1.062254
 H         2.338897        -0.795014        -2.022052
 H         4.468368         0.545557        -0.126953
 H         4.682558         2.450058        -1.150563
 H         3.644573         2.050948        -2.474741
 H         2.500400         4.123697        -0.757483
 H         1.680187         3.109567        -1.762552
 H         2.787273         1.195709         1.467023
