19
Iteration:  1730charge 0 multiplicity 1
 C         0.007554         0.182785        -0.385713
 C         1.461099         0.201422        -0.156284
 O         2.062311        -1.052087        -0.010109
 C         2.582402        -0.216772        -0.980600
 C         3.580459         0.873254        -0.465245
 C         3.551320         1.998105        -1.460963
 C         2.247929         2.839565        -1.053094
 O         1.954623         2.539423         0.279199
 C         2.395700         1.235225         0.552391
 H        -0.577021         0.055315         0.649299
 H        -0.351062         1.225133        -0.718851
 H        -0.395111        -0.496198        -1.129716
 H         2.655161        -0.588803        -2.041827
 H         4.531706         0.635259        -0.001561
 H         4.600637         2.336240        -1.493128
 H         3.447435         1.569323        -2.492081
 H         2.186600         3.942837        -1.114304
 H         1.405839         2.421937        -1.599647
 H         2.543827         1.185313         1.667543
