19
Iteration:  1393charge 0 multiplicity 1
 C        -0.116300         0.145675        -0.142431
 C         1.443949         0.121258        -0.265715
 O         2.197717        -1.067676         0.002337
 C         2.631505        -0.321285        -1.051578
 C         3.419540         0.836164        -0.430741
 C         3.547287         2.027401        -1.326083
 C         2.451445         3.010439        -1.093563
 O         1.946488         2.586517         0.180588
 C         2.269999         1.255755         0.411116
 H        -0.395063        -0.218524         0.823123
 H        -0.277097         1.199509        -0.155108
 H        -0.478907        -0.476047        -0.918538
 H         2.570158        -0.728994        -2.123251
 H         4.366411         0.416355         0.022545
 H         4.592314         2.447747        -1.272941
 H         3.438420         1.647125        -2.420561
 H         2.423925         4.123933        -1.092618
 H         1.694429         2.820654        -1.831212
 H         2.226641         1.009426         1.460087
