19
Iteration:  4718charge 0 multiplicity 1
 C         0.016308         0.184807        -0.332363
 C         1.482300        -0.011021        -0.117577
 O         2.197747        -1.179781         0.093141
 C         2.564053        -0.325287        -1.025355
 C         3.486663         0.851494        -0.583446
 C         3.280176         1.963515        -1.590889
 C         2.651091         3.236263        -0.834738
 O         1.782593         2.564139         0.203157
 C         2.281369         1.228420         0.494104
 H        -0.588675         0.052061         0.604790
 H         0.008086         1.221168        -0.722991
 H        -0.211754        -0.572759        -1.146435
 H         2.550928        -0.697545        -2.112327
 H         4.485186         0.671793        -0.198975
 H         4.218394         2.250969        -2.058221
 H         2.659361         1.753990        -2.442778
 H         3.536459         3.742436        -0.311818
 H         2.174560         4.061728        -1.436101
 H         2.564968         1.263059         1.604311
