19
Iteration:  4646
 C        -0.116576        -0.013392        -0.235466
 C         1.410236         0.129954        -0.113943
 O         2.199543        -1.195449        -0.017734
 C         2.510745        -0.237279        -1.052162
 C         3.424591         0.857548        -0.496301
 C         3.533560         2.082880        -1.586760
 C         2.572296         3.202974        -0.975484
 O         1.935871         2.609125         0.266155
 C         2.275319         1.179655         0.499480
 H        -0.588628         0.015737         0.817270
 H        -0.410341         0.921849        -0.791359
 H        -0.264907        -0.931933        -0.775197
 H         2.323159        -0.586703        -2.051324
 H         4.425120         0.496283        -0.157940
 H         4.676265         2.275040        -1.452525
 H         3.302024         1.619042        -2.589932
 H         3.157609         4.089222        -0.685344
 H         1.709509         3.438170        -1.710260
 H         2.414900         1.061241         1.583004
