19
Iteration:  3159charge 0 multiplicity 1
 C        -0.071444         0.238158        -0.189809
 C         1.450268         0.200573        -0.152925
 O         2.100324        -1.106965        -0.048547
 C         2.554407        -0.058123        -1.120760
 C         3.548659         0.885714        -0.468641
 C         3.650183         2.111357        -1.351060
 C         2.243924         2.648688        -1.175690
 O         1.955492         2.517964         0.249607
 C         2.379343         1.233500         0.567009
 H        -0.417906        -0.190570         0.790145
 H        -0.527210         1.188598        -0.398153
 H        -0.400796        -0.530404        -0.988053
 H         2.492808        -0.530640        -2.112183
 H         4.528065         0.328767        -0.296297
 H         4.338161         2.918550        -1.063605
 H         4.012121         1.761501        -2.234722
 H         2.026753         3.725729        -1.388515
 H         1.573137         1.986437        -1.820891
 H         2.653224         1.096977         1.631086
