19
Iteration:  3422charge 0 multiplicity 1
 C        -0.112732         0.042361        -0.114044
 C         1.352364         0.114340        -0.192847
 O         2.118486        -1.070801         0.002322
 C         2.528200        -0.237010        -1.104266
 C         3.511781         0.902852        -0.555590
 C         3.717914         2.100668        -1.308690
 C         2.350420         2.878099        -1.151249
 O         1.979509         2.613911         0.269854
 C         2.306282         1.218272         0.434479
 H        -0.676580        -0.223744         0.792198
 H        -0.383056         1.102542        -0.263707
 H        -0.470431        -0.539479        -0.881891
 H         2.598076        -0.545616        -2.138064
 H         4.473608         0.411425        -0.160990
 H         4.669708         2.784879        -1.020824
 H         3.804863         1.946619        -2.407740
 H         2.376526         3.981498        -1.309223
 H         1.630450         2.453396        -1.852402
 H         2.790517         1.149634         1.428192
