19
Iteration:  2820
 C        -0.152548        -0.089567        -0.146803
 C         1.394598        -0.001435        -0.199401
 O         2.243170        -1.072119         0.136633
 C         2.598210        -0.361194        -1.034882
 C         3.331235         0.842053        -0.623082
 C         3.432178         2.126894        -1.595167
 C         2.936398         3.224296        -0.637759
 O         1.742487         2.595987        -0.060052
 C         2.210755         1.312406         0.426993
 H        -0.575849         0.340613         0.742005
 H        -0.501962         0.462435        -0.997057
 H        -0.380738        -1.131170        -0.365017
 H         2.736674        -0.856152        -2.011269
 H         4.327290         0.652617        -0.122754
 H         4.527185         2.180270        -1.998294
 H         2.686606         1.878259        -2.502265
 H         3.593560         3.638295         0.085355
 H         2.625218         4.020096        -1.227373
 H         2.407793         1.237717         1.516946
