19
Iteration:  3549
 C        -0.056963         0.229252        -0.244954
 C         1.466157        -0.016102        -0.158683
 O         2.178224        -1.149038         0.208797
 C         2.661192        -0.327432        -1.039856
 C         3.380011         0.935618        -0.591457
 C         3.391099         2.089891        -1.596714
 C         2.683884         3.164916        -0.791866
 O         1.758790         2.454685         0.077843
 C         2.324342         1.193664         0.382936
 H        -0.381709         0.330880         0.857845
 H        -0.217825         1.039892        -0.960299
 H        -0.561078        -0.718624        -0.768990
 H         2.821031        -1.014675        -1.830036
 H         4.376667         0.679002        -0.287843
 H         4.338613         2.285100        -1.986188
 H         2.664300         1.684398        -2.340627
 H         3.396086         3.761988        -0.206656
 H         2.091983         3.880174        -1.426093
 H         2.511396         1.380652         1.481396
