19
Iteration:  2050
 C         0.031928         0.246307        -0.330868
 C         1.477900         0.128280        -0.097515
 O         2.145761        -1.134571        -0.030122
 C         2.595296        -0.248225        -1.061645
 C         3.506965         0.847626        -0.402326
 C         3.473404         2.006542        -1.459639
 C         2.337790         2.994624        -1.048523
 O         1.867123         2.520932         0.199500
 C         2.364015         1.190613         0.577699
 H        -0.431695         0.622898         0.543634
 H        -0.192798         1.072076        -0.954871
 H        -0.254068        -0.716313        -0.672145
 H         2.381198        -0.637461        -2.119347
 H         4.572376         0.642329        -0.058049
 H         4.564988         2.413935        -1.376474
 H         3.329519         1.495011        -2.423667
 H         2.680363         4.058102        -0.944417
 H         1.565853         2.958341        -1.843822
 H         2.363265         1.358440         1.647963
