19
Iteration:   520
 C        -0.125866         0.229162        -0.159147
 C         1.355937         0.097499        -0.072722
 O         2.210517        -1.123471        -0.106919
 C         2.434000        -0.070857        -1.112596
 C         3.426530         0.794547        -0.496871
 C         3.684356         2.071625        -1.404061
 C         2.396383         2.815625        -1.168706
 O         2.033737         2.526322         0.244767
 C         2.326366         1.217021         0.572201
 H        -0.509579         0.224864         0.874680
 H        -0.150626         1.319068        -0.377942
 H        -0.551957        -0.445423        -0.914160
 H         2.406360        -0.359295        -2.157400
 H         4.431191         0.409847        -0.181254
 H         4.471069         2.662203        -0.920281
 H         3.917423         1.725650        -2.461235
 H         2.394007         3.910270        -1.270257
 H         1.430235         2.562813        -1.712025
 H         2.519063         1.128410         1.646582
