19
Iteration:   228
 C        -0.269801         0.109933        -0.095797
 C         1.312205         0.187327        -0.274966
 O         2.199293        -1.040480         0.008771
 C         2.513744        -0.257157        -1.144238
 C         3.513117         0.820611        -0.649426
 C         3.750089         2.011923        -1.398127
 C         2.427529         2.855230        -1.017758
 O         2.014869         2.643846         0.328978
 C         2.297715         1.284127         0.450665
 H        -0.432862        -0.366106         0.896866
 H        -0.473134         1.184327        -0.146941
 H        -0.725232        -0.387809        -0.962924
 H         2.512053        -0.871188        -2.054859
 H         4.341279         0.357054        -0.142023
 H         4.641075         2.501758        -0.983909
 H         3.917561         1.914283        -2.487669
 H         2.501957         3.925768        -1.181409
 H         1.604504         2.500410        -1.681440
 H         2.388867         0.896612         1.526717
