19
Iteration:  4076charge 0 multiplicity 1
 C        -0.038441         0.275785        -0.272676
 C         1.473686         0.157308        -0.184690
 O         2.123075        -1.095079        -0.063994
 C         2.655208        -0.301958        -1.080008
 C         3.509720         0.817717        -0.502586
 C         3.605075         2.097953        -1.460578
 C         2.203494         2.847587        -1.100677
 O         1.897093         2.536643         0.383853
 C         2.387691         1.205127         0.559808
 H        -0.325521         0.568034         0.874636
 H        -0.387757         1.145380        -0.850884
 H        -0.466392        -0.652111        -0.620139
 H         2.521850        -0.733004        -2.106857
 H         4.533796         0.547214        -0.188821
 H         4.401021         2.854385        -1.180988
 H         3.592677         1.901262        -2.555109
 H         2.370070         3.980773        -0.973889
 H         1.591860         2.535632        -1.998595
 H         2.522908         1.032945         1.615553
