19
Iteration:  4411charge 0 multiplicity 1
 C        -0.087526         0.050102        -0.260410
 C         1.421614         0.080387        -0.227378
 O         2.207561        -1.228428        -0.107314
 C         2.552207        -0.290906        -1.069053
 C         3.434280         0.882664        -0.441480
 C         3.450998         2.031602        -1.486365
 C         2.458734         3.074746        -0.976914
 O         2.012608         2.699631         0.330156
 C         2.290799         1.273049         0.541566
 H        -0.541450         0.017701         0.683829
 H        -0.514341         0.953768        -0.857071
 H        -0.339556        -0.775833        -0.861732
 H         2.539871        -0.489218        -2.164025
 H         4.374559         0.607740         0.045072
 H         4.513827         2.443243        -1.544754
 H         3.137152         1.690334        -2.513917
 H         3.039221         3.948433        -0.697091
 H         1.639472         3.255452        -1.610752
 H         2.611898         1.033091         1.629041
