19
Iteration:     8
 C        -0.111308         0.214399        -0.180081
 C         1.413831         0.241434        -0.168155
 O         2.066682        -1.125859        -0.011191
 C         2.475282        -0.280496        -1.113238
 C         3.477606         0.740110        -0.575036
 C         3.640755         2.113881        -1.427658
 C         2.446816         2.904842        -1.119182
 O         1.966366         2.614931         0.275048
 C         2.400674         1.169851         0.543488
 H        -0.283212        -0.096838         0.887968
 H        -0.569462         1.208708        -0.248043
 H        -0.463659        -0.607129        -0.818027
 H         2.522651        -0.843681        -2.007779
 H         4.479747         0.501109        -0.291697
 H         4.464642         2.612359        -0.943494
 H         3.924747         1.905684        -2.489007
 H         2.575136         3.973799        -1.162948
 H         1.581833         2.578963        -1.738878
 H         2.546521         1.139787         1.697347
