19
Iteration:   585
 C        -0.134852         0.201827        -0.258309
 C         1.418903         0.103025        -0.115292
 O         2.190218        -1.095537         0.028822
 C         2.392528        -0.249124        -1.051169
 C         3.496780         0.784645        -0.577213
 C         3.667565         2.095090        -1.423968
 C         2.369513         2.931095        -1.064354
 O         2.013768         2.592949         0.296469
 C         2.410424         1.215053         0.463746
 H        -0.729890        -0.402281         0.517564
 H        -0.528670         1.293734        -0.178327
 H        -0.623066        -0.078193        -1.242591
 H         2.381439        -0.645103        -2.070646
 H         4.294127         0.242657        -0.014147
 H         4.590670         2.663033        -1.240725
 H         3.604621         1.766430        -2.523010
 H         2.373653         4.036153        -1.121209
 H         1.626118         2.547468        -1.918749
 H         2.539857         1.083498         1.543601
