19
Iteration:  4499
 C         0.018573         0.241939        -0.235333
 C         1.445097         0.097753        -0.170576
 O         2.127138        -1.155587        -0.090540
 C         2.545927        -0.156342        -1.116552
 C         3.477901         0.870750        -0.446494
 C         3.563178         2.086533        -1.381178
 C         2.234426         2.877609        -1.140643
 O         1.996411         2.547534         0.339663
 C         2.357437         1.173721         0.544959
 H        -0.388835         0.031753         0.734698
 H        -0.263201         1.282150        -0.547647
 H        -0.299583        -0.475237        -0.956929
 H         2.508339        -0.581996        -2.075594
 H         4.433693         0.504102        -0.159798
 H         4.400401         2.786289        -1.083050
 H         3.625330         1.808751        -2.462970
 H         2.338570         3.976466        -1.142866
 H         1.494508         2.533185        -1.929476
 H         2.698113         1.001067         1.622302
