19
Iteration:  1838
 C        -0.153171         0.004428        -0.238482
 C         1.354357         0.097882        -0.133354
 O         2.182596        -1.166453        -0.085735
 C         2.539764        -0.129083        -1.052623
 C         3.449359         0.824878        -0.433416
 C         3.708891         2.113198        -1.354564
 C         2.365843         2.893640        -1.143958
 O         2.001653         2.633725         0.228034
 C         2.305832         1.327857         0.527112
 H        -0.469900         0.082060         0.772477
 H        -0.592392         0.897008        -0.628993
 H        -0.557698        -0.858745        -0.722933
 H         2.330879        -0.147401        -2.126949
 H         4.294511         0.419388         0.058997
 H         4.687803         2.596549        -1.086066
 H         3.900807         1.607900        -2.384142
 H         2.662604         3.918091        -1.291238
 H         1.585923         2.564498        -1.894794
 H         2.595246         1.296498         1.609368
