19
Iteration:  1663
 C        -0.078212         0.107400        -0.208292
 C         1.417668         0.154632        -0.062965
 O         2.147436        -1.075199         0.055750
 C         2.460694        -0.157462        -1.037222
 C         3.465047         0.839579        -0.651511
 C         3.772003         2.177916        -1.326532
 C         2.417733         2.911380        -1.135777
 O         1.861317         2.458579         0.133197
 C         2.328212         1.194637         0.546802
 H        -0.647284         0.053824         0.837272
 H        -0.287813         1.083066        -0.773650
 H        -0.498145        -0.675799        -0.922975
 H         2.339820        -0.670506        -2.071123
 H         4.396012         0.364612        -0.381304
 H         4.538810         2.703405        -0.733143
 H         4.235584         2.064980        -2.369344
 H         2.360206         3.995553        -1.157800
 H         1.817118         2.511848        -1.978555
 H         2.439764         1.141125         1.666555
