19
Iteration:  3650
 C        -0.139909        -0.254124        -0.064282
 C         1.360462         0.118703        -0.257154
 O         2.170630        -1.019676         0.118557
 C         2.469744        -0.284644        -1.123599
 C         3.428881         0.851681        -0.537008
 C         3.549369         2.069401        -1.578768
 C         2.872297         3.179222        -0.807483
 O         1.843898         2.610463         0.043612
 C         2.155271         1.308941         0.389340
 H        -0.045564        -0.471211         1.111316
 H        -0.848645         0.643193        -0.260863
 H        -0.293365        -1.137251        -0.643415
 H         2.606931        -0.891307        -2.063165
 H         4.424152         0.746114         0.008500
 H         4.580403         2.484868        -1.830702
 H         3.074397         1.913146        -2.517006
 H         3.576224         3.747908        -0.174068
 H         2.355631         3.955110        -1.376757
 H         2.209278         1.136055         1.519953
