19
Iteration:   616charge 0 multiplicity 1
 C        -0.021457         0.112020        -0.325296
 C         1.435767         0.157696        -0.017618
 O         2.122171        -1.119098        -0.067934
 C         2.409533        -0.205673        -1.077762
 C         3.431740         0.796866        -0.479070
 C         3.544555         2.018226        -1.401382
 C         2.360483         2.941469        -1.138200
 O         2.103547         2.641084         0.275440
 C         2.398344         1.231099         0.545196
 H        -0.570767        -0.107079         0.657872
 H        -0.316758         1.221150        -0.587197
 H        -0.110332        -0.739473        -1.055112
 H         2.240621        -0.523744        -2.115146
 H         4.211918         0.197802        -0.021678
 H         4.493565         2.493097        -1.114847
 H         3.521428         1.756118        -2.515729
 H         2.506692         4.042632        -1.107579
 H         1.461230         2.858537        -1.741067
 H         2.483855         1.274671         1.643856
