19
Iteration:  4556charge 0 multiplicity 1
 C        -0.057853         0.194380        -0.058290
 C         1.470948         0.114952        -0.132974
 O         2.172659        -1.166287        -0.146773
 C         2.428884        -0.196024        -1.155995
 C         3.518271         0.841161        -0.537895
 C         3.670086         2.181352        -1.209286
 C         2.327195         2.828835        -1.138233
 O         1.958945         2.537686         0.180593
 C         2.306868         1.227027         0.507555
 H        -0.530830        -0.309215         0.896394
 H        -0.321704         1.190422        -0.156045
 H        -0.594784        -0.299835        -0.938239
 H         2.221193        -0.620291        -2.179734
 H         4.486577         0.435165        -0.258037
 H         4.520256         2.787555        -0.652859
 H         4.093552         2.252222        -2.260826
 H         2.258248         3.969111        -1.282255
 H         1.628846         2.403020        -1.996712
 H         2.397634         1.387872         1.614702
