19
Iteration:  4684charge 0 multiplicity 1
 C        -0.039176         0.207493        -0.306993
 C         1.426520         0.075107        -0.184052
 O         2.173131        -1.077450         0.204098
 C         2.580317        -0.359804        -1.044166
 C         3.529985         0.810262        -0.653314
 C         3.421111         2.062965        -1.587743
 C         2.541604         3.239840        -0.835943
 O         1.804060         2.440724         0.238042
 C         2.399215         1.145370         0.416583
 H        -0.633693         0.209195         0.576816
 H        -0.382020         1.162933        -0.815120
 H        -0.525797        -0.573064        -0.962952
 H         2.600521        -0.891599        -2.059899
 H         4.574790         0.589806        -0.412275
 H         4.318225         2.567516        -1.696762
 H         2.984006         1.812783        -2.549053
 H         3.186447         3.959626        -0.285609
 H         1.684157         3.701189        -1.386010
 H         2.477666         0.911133         1.502474
