19
Iteration:  2649
 C        -0.081967        -0.045932        -0.256437
 C         1.422282         0.070120        -0.135374
 O         2.222184        -1.094824         0.201737
 C         2.438869        -0.264126        -1.066359
 C         3.405074         0.841671        -0.600481
 C         3.537025         2.030970        -1.473301
 C         2.745197         3.253878        -0.793732
 O         1.770656         2.535109         0.030416
 C         2.306204         1.284119         0.337406
 H        -0.584735        -0.113451         0.745923
 H        -0.498388         0.611570        -0.987228
 H        -0.203212        -1.141564        -0.565843
 H         2.387185        -0.887935        -2.018511
 H         4.297532         0.545380        -0.094386
 H         4.531727         2.348355        -1.606362
 H         3.099995         1.944457        -2.428708
 H         3.435784         3.796598        -0.240564
 H         2.129864         3.942440        -1.459019
 H         2.475543         1.306755         1.428731
