19
Iteration:  3782
 C        -0.167327        -0.192609        -0.244119
 C         1.344305         0.095058        -0.094918
 O         2.180981        -1.087138         0.094728
 C         2.542434        -0.212112        -1.032757
 C         3.426869         0.878227        -0.509907
 C         3.492650         2.015951        -1.568334
 C         2.782148         3.244739        -0.889284
 O         1.910042         2.599094         0.114531
 C         2.296271         1.281421         0.407188
 H        -0.460320        -0.657887         0.779002
 H        -0.706622         0.721966        -0.472407
 H        -0.390655        -0.956298        -0.968529
 H         2.164728        -0.674504        -1.900216
 H         4.445557         0.543911        -0.222851
 H         4.491987         2.222698        -2.038506
 H         2.789479         1.755240        -2.324870
 H         3.331476         4.073193        -0.432665
 H         2.014099         3.699997        -1.490485
 H         2.492448         1.201908         1.539901
