19
Iteration:  4942
 C        -0.033135        -0.046411        -0.152621
 C         1.440952         0.123576        -0.108754
 O         2.172036        -1.087447        -0.054810
 C         2.370665        -0.131678        -1.167896
 C         3.467362         0.811661        -0.503621
 C         3.623737         2.044242        -1.406277
 C         2.493567         3.067221        -1.042735
 O         1.934650         2.587748         0.209461
 C         2.314609         1.231384         0.536986
 H        -0.488911        -0.608857         0.739391
 H        -0.492502         1.017993        -0.291703
 H        -0.309304        -0.591598        -1.081813
 H         2.289212        -0.271742        -2.302286
 H         4.383450         0.230285        -0.222596
 H         4.578685         2.538333        -1.247901
 H         3.462585         1.604403        -2.429254
 H         2.874824         4.037548        -0.786859
 H         1.706159         3.145546        -1.765625
 H         2.391151         1.140570         1.684567
