19
Iteration:   373
 C        -0.128246         0.210032        -0.230422
 C         1.452616         0.131770        -0.118516
 O         2.209944        -1.073696         0.026963
 C         2.433736        -0.216919        -1.173684
 C         3.467792         0.719990        -0.591613
 C         3.650630         2.000541        -1.418463
 C         2.355601         2.948560        -1.021409
 O         2.038321         2.612225         0.283331
 C         2.250884         1.235697         0.571120
 H        -0.465208        -0.299902         0.666007
 H        -0.320865         1.278120        -0.362710
 H        -0.353720        -0.327065        -1.164332
 H         2.445825        -0.568855        -2.285306
 H         4.305762         0.156000        -0.459412
 H         4.586057         2.581357        -1.264158
 H         3.539789         1.838164        -2.462243
 H         2.625364         4.006519        -1.100754
 H         1.635983         2.653020        -1.750906
 H         2.469601         1.156298         1.654421
