19
Iteration:   162charge 0 multiplicity 1
 C        -0.076064         0.263663        -0.148967
 C         1.421574         0.163741        -0.110939
 O         2.091844        -1.164494        -0.033200
 C         2.488032        -0.200190        -1.100056
 C         3.497401         0.825317        -0.527370
 C         3.662612         2.101177        -1.348663
 C         2.388454         2.922366        -1.118546
 O         1.952293         2.494956         0.197273
 C         2.387872         1.174990         0.494741
 H        -0.593231         0.146116         0.844800
 H        -0.350042         1.275608        -0.495323
 H        -0.613790        -0.384383        -0.861409
 H         2.375888        -0.600799        -2.079739
 H         4.484755         0.446877        -0.223926
 H         4.577397         2.611713        -1.061349
 H         3.763036         1.790383        -2.423398
 H         2.475467         3.998472        -1.117698
 H         1.589274         2.648965        -1.889039
 H         2.581692         1.205289         1.630807
