19
Iteration:  1500charge 0 multiplicity 1
 C        -0.014587         0.202117        -0.266273
 C         1.427933         0.182576        -0.234385
 O         2.096898        -1.135543         0.030654
 C         2.683740        -0.262716        -1.005786
 C         3.517387         0.854552        -0.501273
 C         3.552245         2.002798        -1.399822
 C         2.320482         2.909074        -1.131433
 O         1.932594         2.602390         0.274283
 C         2.302364         1.225336         0.472340
 H        -0.252062         0.328284         0.808552
 H        -0.439400         1.058580        -0.828486
 H        -0.527427        -0.710595        -0.639348
 H         2.587565        -0.654570        -2.069216
 H         4.445436         0.685326         0.034264
 H         4.418781         2.601036        -1.072590
 H         3.652026         1.666458        -2.485541
 H         2.622258         3.986093        -0.977110
 H         1.404119         2.696071        -1.793999
 H         2.377080         0.953094         1.575850
