19
Iteration:  4261charge 0 multiplicity 1
 C        -0.194013         0.095644        -0.115195
 C         1.403182         0.091464        -0.124989
 O         2.179670        -1.121781        -0.165203
 C         2.494397        -0.156922        -1.168105
 C         3.494086         0.847066        -0.525364
 C         3.725585         2.132272        -1.207347
 C         2.300737         2.816469        -1.152249
 O         1.970139         2.604578         0.245903
 C         2.423493         1.246274         0.510967
 H        -0.570103        -0.039066         0.945760
 H        -0.471694         1.054699        -0.474772
 H        -0.590903        -0.605949        -0.777254
 H         2.543865        -0.318019        -2.271920
 H         4.373925         0.293048        -0.157506
 H         4.319214         2.911581        -0.753359
 H         4.091136         1.950126        -2.179423
 H         2.243161         3.911843        -1.355154
 H         1.459319         2.450566        -1.783715
 H         2.673850         1.241907         1.530759
