19
Iteration:  1950
 C        -0.057691         0.021003        -0.286664
 C         1.436754         0.235722        -0.145318
 O         2.107373        -1.064237         0.004101
 C         2.526224        -0.118932        -1.067004
 C         3.448738         0.831210        -0.447648
 C         3.659257         2.026578        -1.434289
 C         2.393327         2.873580        -1.117513
 O         1.952717         2.560654         0.217932
 C         2.344748         1.224453         0.556238
 H        -0.432073        -0.502562         0.609684
 H        -0.589881         1.019924        -0.408613
 H        -0.197953        -0.600473        -1.088939
 H         2.345167        -0.424554        -2.090274
 H         4.427036         0.570025        -0.029699
 H         4.483995         2.693723        -0.900056
 H         3.892671         1.732186        -2.527791
 H         2.425946         4.026930        -1.115378
 H         1.419398         2.626508        -1.721649
 H         2.483649         1.238465         1.658288
