19
Iteration:     5charge 0 multiplicity 1
 C        -0.100755         0.208089        -0.176964
 C         1.414798         0.214452        -0.149649
 O         2.080366        -1.106123        -0.014793
 C         2.460086        -0.247208        -1.105772
 C         3.462156         0.758638        -0.568901
 C         3.644650         2.093433        -1.414053
 C         2.428315         2.889409        -1.110165
 O         1.990768         2.592160         0.260618
 C         2.387742         1.184761         0.530448
 H        -0.364967        -0.063341         0.862886
 H        -0.510413         1.234577        -0.316372
 H        -0.459153        -0.592153        -0.845976
 H         2.451939        -0.797213        -2.112501
 H         4.517908         0.429574        -0.222379
 H         4.530207         2.634679        -0.955690
 H         3.878861         1.881425        -2.464480
 H         2.565150         4.001833        -1.152588
 H         1.578219         2.576819        -1.748152
 H         2.542721         1.143884         1.593027
