19
Iteration:  4803
 C        -0.101542        -0.184917        -0.154474
 C         1.313784        -0.013078        -0.161470
 O         2.260730        -0.992749         0.159069
 C         2.444894        -0.290241        -1.146105
 C         3.306742         0.856308        -0.651968
 C         3.540484         2.116030        -1.612973
 C         2.899476         3.212761        -0.632022
 O         1.819220         2.567580         0.035703
 C         2.211059         1.299688         0.397690
 H        -0.487935        -0.243742         0.808043
 H        -0.555157         0.729672        -0.719720
 H        -0.420272        -1.075504        -0.750235
 H         2.651184        -0.889090        -2.096613
 H         4.272575         0.581626        -0.160037
 H         4.573938         2.352248        -1.710481
 H         3.008111         1.988339        -2.578121
 H         3.628869         3.524380         0.087550
 H         2.457576         4.071244        -1.262371
 H         2.439907         1.252911         1.428140
