19
Iteration:  2725charge 0 multiplicity 1
 C        -0.023217         0.088705        -0.154314
 C         1.471533         0.123473        -0.164406
 O         2.184184        -1.167393         0.104499
 C         2.540348        -0.257265        -1.055750
 C         3.427081         0.873306        -0.488760
 C         3.587497         2.022341        -1.477322
 C         2.617804         3.135681        -0.887185
 O         1.681764         2.520206        -0.007120
 C         2.295522         1.209118         0.403053
 H        -0.434176        -0.543540         0.707862
 H        -0.362799         1.087563         0.072151
 H        -0.460170        -0.220468        -1.178411
 H         2.574687        -0.721734        -2.095803
 H         4.313543         0.515328        -0.053757
 H         4.504969         2.560741        -1.470046
 H         3.301576         1.829998        -2.463098
 H         3.256088         3.853096        -0.280605
 H         2.111078         3.781381        -1.723226
 H         2.566167         1.304887         1.448865
