19
Iteration:  1977
 C        -0.137131        -0.002687        -0.368781
 C         1.384639         0.138068        -0.158021
 O         2.136684        -1.024549         0.114834
 C         2.548598        -0.303653        -1.082282
 C         3.452000         0.793112        -0.569722
 C         3.636573         2.156616        -1.396538
 C         2.368156         2.906108        -1.096424
 O         2.056063         2.662883         0.322990
 C         2.366096         1.235697         0.506685
 H        -0.827315        -0.139926         0.471245
 H        -0.453594         1.015462        -0.664553
 H        -0.319816        -0.724751        -1.288855
 H         2.311362        -0.803038        -2.044352
 H         4.457460         0.547625        -0.147324
 H         4.450559         2.721399        -1.014014
 H         3.783602         2.044532        -2.451208
 H         2.243186         3.950822        -1.241654
 H         1.522378         2.424324        -1.574124
 H         2.562429         1.120952         1.570980
