19
Iteration:  4508charge 0 multiplicity 1
 C        -0.042815         0.255970        -0.217610
 C         1.494891         0.145734        -0.124692
 O         2.132684        -1.132684        -0.149987
 C         2.594071        -0.133615        -1.066633
 C         3.510379         0.801325        -0.439394
 C         3.593890         2.128397        -1.403574
 C         2.233078         2.864518        -1.093547
 O         1.910956         2.494422         0.251414
 C         2.407196         1.146587         0.581588
 H        -0.388867         0.104398         0.736369
 H        -0.333429         1.384050        -0.428895
 H        -0.499530        -0.369955        -0.948190
 H         2.494868        -0.269422        -2.122812
 H         4.435935         0.295065        -0.124916
 H         4.539478         2.717117        -1.330442
 H         3.529024         1.707015        -2.431918
 H         2.354268         3.965973        -1.147280
 H         1.444674         2.352250        -1.750484
 H         2.473982         1.257545         1.723455
