19
Iteration:  1158
 C        -0.053449         0.051052        -0.288303
 C         1.416634         0.254970        -0.244562
 O         2.179587        -1.063075         0.028351
 C         2.519097        -0.250765        -1.087680
 C         3.457146         0.825385        -0.502010
 C         3.597494         1.970678        -1.435675
 C         2.407548         2.911761        -1.048874
 O         1.980353         2.613089         0.352873
 C         2.284659         1.319496         0.508537
 H        -0.574614        -0.238884         0.610722
 H        -0.694932         0.907838        -0.537118
 H        -0.207046        -0.770936        -0.940004
 H         2.630270        -0.581567        -2.160029
 H         4.335130         0.496293         0.050824
 H         4.566313         2.570684        -1.428575
 H         3.443042         1.649179        -2.512893
 H         2.614840         3.958410        -1.128166
 H         1.561496         2.594941        -1.841611
 H         2.454979         1.074946         1.608790
