19
Iteration:  4578charge 0 multiplicity 1
 C        -0.150425         0.008677        -0.082496
 C         1.387127         0.136955        -0.198738
 O         2.175978        -1.041903        -0.019595
 C         2.413730        -0.167146        -1.184950
 C         3.399616         0.812984        -0.623265
 C         3.777181         2.136475        -1.260502
 C         2.382664         2.929561        -1.124339
 O         1.975944         2.598511         0.240402
 C         2.368165         1.188059         0.481967
 H        -0.360598        -0.491448         0.968357
 H        -0.521432         0.960078        -0.164577
 H        -0.654674        -0.617492        -0.898035
 H         2.479288        -0.632690        -2.226075
 H         4.266455         0.414918        -0.110630
 H         4.577512         2.734884        -0.553779
 H         4.288208         2.264976        -2.274473
 H         2.175991         4.065789        -1.234620
 H         1.787342         2.420898        -2.006052
 H         2.827222         0.877381         1.502193
