19
Iteration:  3466
 C        -0.103074        -0.149046        -0.268212
 C         1.394537         0.052908        -0.129555
 O         2.161608        -1.054065         0.121335
 C         2.465931        -0.282226        -1.112624
 C         3.370026         0.821774        -0.574130
 C         3.597606         2.070936        -1.488184
 C         2.586752         3.113750        -0.977455
 O         1.941944         2.683789         0.264825
 C         2.351869         1.311543         0.410539
 H        -0.529303        -0.426180         0.709702
 H        -0.567671         0.863481        -0.356219
 H        -0.459610        -0.780107        -1.006265
 H         2.306528        -0.914873        -2.009033
 H         4.367299         0.528779        -0.086774
 H         4.780294         2.391593        -1.475315
 H         3.478450         1.771751        -2.563717
 H         2.941467         4.168305        -0.888331
 H         1.809999         3.232938        -1.736530
 H         2.485766         1.263242         1.545266
