19
Iteration:   827charge 0 multiplicity 1
 C        -0.111773         0.096869        -0.176929
 C         1.356402         0.075804        -0.018245
 O         2.172347        -1.209406        -0.114045
 C         2.431758        -0.174995        -1.042163
 C         3.450815         0.860487        -0.429161
 C         3.638921         2.037330        -1.369330
 C         2.414180         2.995502        -1.142957
 O         1.986488         2.596709         0.152681
 C         2.388887         1.311361         0.512646
 H        -0.853661        -0.301625         0.685010
 H        -0.245145         1.207193        -0.252683
 H        -0.375728        -0.413249        -1.175963
 H         2.431254        -0.553137        -2.123650
 H         4.419475         0.551027        -0.006476
 H         4.518959         2.724429        -1.109993
 H         3.693170         1.567071        -2.388585
 H         2.778704         4.015974        -1.151625
 H         1.770373         2.717201        -1.997414
 H         2.723857         1.301473         1.528513
