19
Iteration:  2342charge 0 multiplicity 1
 C        -0.009017         0.285900        -0.336678
 C         1.472217         0.103566        -0.156449
 O         2.175109        -1.164068         0.091651
 C         2.528228        -0.266749        -1.071315
 C         3.471243         0.903062        -0.517378
 C         3.585852         2.085488        -1.397781
 C         2.319623         2.922487        -1.093511
 O         1.856387         2.519069         0.216466
 C         2.396243         1.174902         0.527001
 H        -0.505575        -0.172960         0.528212
 H        -0.209090         1.380785        -0.268279
 H        -0.549732        -0.095108        -1.188306
 H         2.345584        -0.778546        -1.985190
 H         4.386461         0.403836        -0.159430
 H         4.430556         2.689640        -0.883539
 H         3.941948         1.915100        -2.533878
 H         2.628764         4.017081        -1.065825
 H         1.536743         2.784311        -1.842690
 H         2.550894         1.109928         1.656281
