19
Iteration:  3481charge 0 multiplicity 1
 C        -0.173775        -0.092003        -0.258181
 C         1.368050         0.095650        -0.098396
 O         2.186098        -1.142982         0.121397
 C         2.465529        -0.225290        -1.019288
 C         3.457600         0.870358        -0.624566
 C         3.582036         2.052216        -1.544221
 C         2.597857         3.142386        -0.992230
 O         1.967153         2.651427         0.195611
 C         2.263645         1.284892         0.558950
 H        -0.569858        -0.497914         0.649553
 H        -0.680465         0.677014        -0.884570
 H        -0.082293        -0.949137        -1.065883
 H         2.632498        -0.655551        -2.045043
 H         4.350593         0.376243        -0.343132
 H         4.525789         2.478623        -1.591176
 H         3.245096         1.837355        -2.588290
 H         3.177864         4.014121        -0.703810
 H         1.799832         3.488252        -1.684396
 H         2.649132         1.007971         1.560535
