19
Iteration:  3380
 C        -0.040831         0.324575        -0.185128
 C         1.517397         0.159746         0.018227
 O         2.143852        -1.120686        -0.166650
 C         2.526232        -0.048692        -1.084328
 C         3.539549         0.798530        -0.488366
 C         3.632379         2.104162        -1.292156
 C         2.221687         2.660678        -1.214901
 O         1.842855         2.502165         0.195714
 C         2.453087         1.218488         0.545510
 H        -0.686896         0.194870         0.710706
 H        -0.216753         1.388153        -0.571678
 H        -0.334958        -0.461474        -0.828934
 H         2.393579        -0.417878        -2.103106
 H         4.464679         0.478820         0.054863
 H         4.341681         2.749223        -0.793382
 H         3.919256         1.816729        -2.297176
 H         2.231510         3.755434        -1.404178
 H         1.523651         2.114296        -1.834948
 H         2.617555         1.110392         1.644001
