19
Iteration:   280charge 0 multiplicity 1
 C        -0.102682         0.239330        -0.221888
 C         1.414835         0.126995        -0.040729
 O         2.139365        -1.148005        -0.055212
 C         2.439005        -0.138520        -1.110059
 C         3.512152         0.721546        -0.566661
 C         3.652397         2.131693        -1.399972
 C         2.408680         2.875154        -1.098001
 O         1.926962         2.563988         0.257667
 C         2.440485         1.227273         0.568432
 H        -0.636906         0.309928         0.745024
 H        -0.279162         1.175440        -0.764509
 H        -0.479957        -0.566684        -0.869608
 H         2.142197        -0.401064        -2.027684
 H         4.482102         0.044193        -0.310883
 H         4.587362         2.641857        -1.218315
 H         3.407784         1.786948        -2.511586
 H         2.604165         3.918741        -1.042878
 H         1.636476         2.512578        -1.834059
 H         2.533866         1.164245         1.657122
