19
Iteration:  4944charge 0 multiplicity 1
 C        -0.039348        -0.039939        -0.147829
 C         1.439004         0.121345        -0.118466
 O         2.175644        -1.080057        -0.051073
 C         2.384568        -0.138285        -1.190199
 C         3.466669         0.824196        -0.494752
 C         3.624144         2.039522        -1.403573
 C         2.479008         3.040519        -1.041120
 O         1.953749         2.587682         0.216017
 C         2.300002         1.244354         0.553374
 H        -0.429896        -0.547202         0.674189
 H        -0.521981         1.002487        -0.284377
 H        -0.296861        -0.613642        -1.097500
 H         2.199767        -0.294003        -2.298138
 H         4.384593         0.232342        -0.269016
 H         4.569198         2.533038        -1.263959
 H         3.494825         1.577563        -2.464115
 H         2.827350         4.022070        -0.716784
 H         1.704391         3.166305        -1.825651
 H         2.386063         1.145958         1.649863
