19
Iteration:   643charge 0 multiplicity 1
 C        -0.172270         0.149957        -0.248471
 C         1.388285         0.234384        -0.201037
 O         2.020012        -1.063432         0.029639
 C         2.591470        -0.244781        -1.087171
 C         3.556750         0.885807        -0.583271
 C         3.633377         2.095234        -1.488328
 C         2.423273         2.829680        -1.063777
 O         1.993567         2.544354         0.344882
 C         2.393469         1.203026         0.522356
 H        -0.397656         0.197281         0.794330
 H        -0.642006         0.899543        -0.755990
 H        -0.328956        -0.864656        -0.563271
 H         2.586359        -0.805549        -2.029609
 H         4.447316         0.392808        -0.180909
 H         4.571797         2.570986        -1.152327
 H         3.631814         2.020554        -2.545533
 H         2.472447         3.909844        -0.999924
 H         1.508732         2.542136        -1.723800
 H         2.395711         1.051871         1.594673
