19
Iteration:  2531
 C        -0.045527        -0.009973        -0.295564
 C         1.433550         0.101166        -0.171886
 O         2.187322        -1.127255         0.204956
 C         2.504940        -0.294415        -1.026166
 C         3.404577         0.873245        -0.518998
 C         3.530568         2.031822        -1.545708
 C         2.665012         3.202102        -0.827889
 O         1.798521         2.540048         0.046046
 C         2.303387         1.290209         0.390139
 H        -0.345286        -0.497708         0.566466
 H        -0.362938         0.966407        -0.293413
 H        -0.532551        -0.632114        -1.057301
 H         2.259374        -0.867725        -1.975720
 H         4.353622         0.489458        -0.164231
 H         4.496653         2.386181        -1.505428
 H         3.107904         1.784297        -2.632612
 H         3.181496         3.916624        -0.140776
 H         2.227715         3.687917        -1.676909
 H         2.512504         1.276168         1.447616
