19
Iteration:  2694charge 0 multiplicity 1
 C        -0.088280         0.080263        -0.156691
 C         1.454824         0.132293        -0.115595
 O         2.174439        -1.188072         0.063365
 C         2.580922        -0.194378        -1.050752
 C         3.443859         0.899373        -0.446000
 C         3.548189         2.067186        -1.485270
 C         2.663533         3.133854        -0.922119
 O         1.700207         2.504670        -0.032826
 C         2.288247         1.167894         0.477705
 H        -0.507894        -0.411304         0.752955
 H        -0.291553         1.141382        -0.211120
 H        -0.568991        -0.448646        -1.037374
 H         2.843322        -0.644724        -2.084327
 H         4.407220         0.534405        -0.141660
 H         4.495336         2.439111        -1.657075
 H         3.165633         1.687282        -2.433746
 H         3.164404         3.830287        -0.352677
 H         2.184958         3.610677        -1.829991
 H         2.641637         1.197748         1.518945
