19
Iteration:  2877charge 0 multiplicity 1
 C        -0.088712        -0.021715        -0.286708
 C         1.397347         0.049550        -0.125436
 O         2.218235        -1.112070         0.210479
 C         2.484599        -0.284855        -1.024225
 C         3.453347         0.889218        -0.601983
 C         3.408081         2.109698        -1.587028
 C         2.820119         3.224308        -0.772904
 O         1.784119         2.504399         0.055584
 C         2.291433         1.254249         0.404301
 H        -0.625834        -0.124492         0.658093
 H        -0.388021         0.816477        -0.772202
 H        -0.418173        -0.894232        -0.899643
 H         2.322121        -0.778598        -2.037617
 H         4.354227         0.650071        -0.109711
 H         4.430718         2.403739        -1.983647
 H         2.918070         1.634964        -2.501865
 H         3.501600         3.670598        -0.100161
 H         2.293940         3.915126        -1.414204
 H         2.608732         1.227315         1.464668
