19
Iteration:   917charge 0 multiplicity 1
 C        -0.034105         0.150287        -0.417769
 C         1.481467         0.181627        -0.043763
 O         2.083242        -1.129496         0.062276
 C         2.476551        -0.196399        -1.092822
 C         3.502800         0.814650        -0.535711
 C         3.558030         2.076483        -1.433936
 C         2.350346         2.874114        -1.084952
 O         1.994237         2.615062         0.284083
 C         2.423732         1.220282         0.569607
 H        -0.709303         0.347417         0.529447
 H        -0.438021         0.867776        -1.187049
 H        -0.356169        -0.907746        -0.611293
 H         2.105824        -0.623023        -1.991834
 H         4.423778         0.226506        -0.451034
 H         4.513819         2.620259        -1.076752
 H         3.666639         1.903698        -2.510647
 H         2.421784         3.997697        -1.119962
 H         1.452212         2.687856        -1.624572
 H         2.812444         1.105109         1.613387
