19
Iteration:  1352charge 0 multiplicity 1
 C        -0.092153        -0.027233        -0.159686
 C         1.365727         0.148254        -0.028055
 O         2.154920        -1.134331         0.036912
 C         2.407263        -0.231716        -1.097926
 C         3.447418         0.813990        -0.540372
 C         3.706863         2.154629        -1.361347
 C         2.562722         3.044288        -1.068502
 O         1.864434         2.556285         0.103806
 C         2.350637         1.251771         0.449483
 H        -0.621429        -0.243948         0.835831
 H        -0.614725         0.920837        -0.567340
 H        -0.307932        -0.814626        -0.916459
 H         2.342600        -0.617088        -2.192578
 H         4.406839         0.509801        -0.005141
 H         4.717864         2.488525        -1.072812
 H         3.841348         2.169674        -2.399561
 H         2.720906         4.129430        -1.106108
 H         1.813507         2.883493        -2.006584
 H         2.639915         1.416694         1.488935
