19
Iteration:  2238
 C        -0.015480         0.089730        -0.236152
 C         1.435516         0.151592        -0.160736
 O         2.136109        -1.080547         0.001049
 C         2.427682        -0.236486        -1.185729
 C         3.440808         0.835268        -0.470649
 C         3.662807         2.121522        -1.314986
 C         2.354474         2.942457        -1.157261
 O         1.962350         2.548428         0.249863
 C         2.354146         1.204968         0.556441
 H        -0.489427         0.247869         0.725215
 H        -0.394665         0.928966        -0.761267
 H        -0.441990        -0.861403        -0.765101
 H         2.495761        -0.685325        -2.188894
 H         4.483071         0.447839        -0.112786
 H         4.573066         2.718564        -0.845768
 H         3.977091         1.937106        -2.355798
 H         2.386899         3.998184        -1.204020
 H         1.631054         2.599889        -1.883079
 H         2.517242         1.317476         1.638876
