19
Iteration:  4065
 C         0.024412         0.357665        -0.181120
 C         1.512026         0.186123        -0.178880
 O         2.146627        -1.160544        -0.144811
 C         2.614025        -0.299980        -1.123593
 C         3.592470         0.811050        -0.455277
 C         3.536299         2.057181        -1.322509
 C         2.164907         2.853065        -1.132121
 O         1.880668         2.567602         0.285805
 C         2.371893         1.199784         0.554368
 H        -0.498437         0.421622         0.898527
 H        -0.277857         1.205215        -0.823891
 H        -0.494136        -0.493057        -0.601149
 H         2.607944        -0.533699        -2.213883
 H         4.522853         0.468609         0.025404
 H         4.485914         2.630570        -1.084573
 H         3.698185         1.712248        -2.373968
 H         2.138692         4.008556        -1.302557
 H         1.255883         2.443861        -1.687566
 H         2.568809         1.085383         1.607407
