19
Iteration:  3862
 C         0.003926         0.091973        -0.196427
 C         1.498586         0.090077        -0.191303
 O         2.197239        -1.104226         0.175159
 C         2.652223        -0.353316        -1.000449
 C         3.455126         0.907716        -0.669419
 C         3.320268         2.001174        -1.658946
 C         2.804382         3.088857        -0.627920
 O         1.657823         2.542853         0.026738
 C         2.229491         1.271359         0.385108
 H        -0.444017         0.503846         0.704111
 H        -0.197471         0.928005        -0.890242
 H        -0.653017        -0.742359        -0.691654
 H         2.520817        -1.008869        -1.898814
 H         4.434070         0.805892        -0.155541
 H         4.136615         2.476046        -2.126729
 H         2.584081         1.718958        -2.364567
 H         3.586798         3.356246         0.066201
 H         2.427631         4.021311        -1.159438
 H         2.583067         1.188048         1.426284
