19
Iteration:  1336
 C        -0.061918        -0.013673        -0.162089
 C         1.397751         0.060207        -0.001900
 O         2.241911        -1.125420        -0.005931
 C         2.352414        -0.175991        -1.065983
 C         3.348882         0.817197        -0.586448
 C         3.730460         2.109524        -1.286085
 C         2.467128         3.039519        -1.188673
 O         1.954221         2.616854         0.092213
 C         2.310071         1.287673         0.506206
 H        -0.656086        -0.161154         0.695013
 H        -0.449923         0.797505        -0.718478
 H        -0.345717        -0.856726        -0.828136
 H         2.077609        -0.556634        -1.990680
 H         4.214835         0.237666        -0.322357
 H         4.424559         2.599529        -0.588113
 H         4.189331         1.786330        -2.324037
 H         2.929543         4.001544        -0.897763
 H         1.743961         3.085524        -1.953850
 H         2.431890         1.158164         1.595259
