19
Iteration:  2022
 C        -0.067306         0.192099        -0.389812
 C         1.447741         0.147132        -0.182839
 O         2.108978        -1.091801         0.070317
 C         2.601087        -0.284863        -1.028659
 C         3.528857         0.897125        -0.504678
 C         3.593662         2.051377        -1.534787
 C         2.314162         2.927728        -0.976351
 O         1.901061         2.530339         0.313965
 C         2.376816         1.233566         0.509419
 H        -0.525291         0.419015         0.626753
 H        -0.411937         1.063444        -1.036609
 H        -0.326744        -0.891852        -0.722403
 H         2.665171        -0.820965        -1.970617
 H         4.503659         0.626606        -0.088537
 H         4.539192         2.487856        -1.370872
 H         3.453001         1.662296        -2.537477
 H         2.553298         3.971435        -0.962750
 H         1.527476         2.760439        -1.770619
 H         2.554331         1.179970         1.615489
