19
Iteration:  3913charge 0 multiplicity 1
 C        -0.129864        -0.025604        -0.220266
 C         1.442469         0.087614         0.013254
 O         2.181497        -1.157589         0.086843
 C         2.510700        -0.253528        -1.067630
 C         3.444024         0.850642        -0.626666
 C         3.535182         2.115038        -1.618487
 C         2.671058         3.190682        -0.922020
 O         1.793230         2.581066         0.125203
 C         2.311467         1.221703         0.469445
 H        -0.741161        -0.044595         0.752302
 H        -0.614936         0.750828        -0.756574
 H        -0.274360        -0.915320        -0.695498
 H         2.550166        -0.832893        -1.937432
 H         4.317010         0.427768        -0.132577
 H         4.566706         2.630636        -1.525780
 H         3.346714         1.701888        -2.651969
 H         3.400461         3.719606        -0.217597
 H         2.102450         3.855830        -1.492873
 H         2.558581         1.136836         1.561596
