19
Iteration:  3976
 C        -0.177472        -0.079745        -0.065901
 C         1.355736         0.117377        -0.154533
 O         2.193504        -1.165157        -0.036797
 C         2.477907        -0.253266        -1.119049
 C         3.408398         0.841889        -0.563855
 C         3.732564         2.143979        -1.331017
 C         2.514483         3.033145        -1.068830
 O         1.960305         2.648639         0.162085
 C         2.279493         1.309051         0.440114
 H        -0.240195        -0.843501         0.809983
 H        -0.674098         0.937974         0.238586
 H        -0.727574        -0.488998        -0.924451
 H         2.425887        -0.694357        -2.048887
 H         4.270119         0.497363         0.019493
 H         4.661801         2.694381        -1.070275
 H         3.667583         2.036151        -2.436073
 H         2.893914         4.075335        -1.156190
 H         1.776133         2.842652        -1.894053
 H         2.626279         1.304276         1.440197
