19
Iteration:  1693
 C        -0.051480         0.187968        -0.231351
 C         1.429543         0.231155        -0.219653
 O         2.154618        -1.111754        -0.005504
 C         2.589266        -0.281843        -1.078881
 C         3.478552         0.821229        -0.511238
 C         3.607616         2.088216        -1.284084
 C         2.232787         2.787452        -1.095182
 O         2.006514         2.614405         0.210884
 C         2.358428         1.261495         0.495596
 H        -0.497845         0.309125         0.721500
 H        -0.052852         1.156675        -0.685048
 H        -0.587134        -0.564487        -0.846476
 H         2.506357        -0.700998        -2.088811
 H         4.357175         0.359965        -0.041783
 H         4.222413         2.791687        -0.712796
 H         3.999764         1.718548        -2.343632
 H         2.146901         3.810878        -1.376076
 H         1.538539         2.248006        -1.751014
 H         2.291546         1.127304         1.566627
