19
Iteration:  4277charge 0 multiplicity 1
 C        -0.156649         0.034106        -0.070318
 C         1.361169         0.159686        -0.197060
 O         2.154677        -1.104394        -0.204354
 C         2.497399        -0.120479        -1.170540
 C         3.500996         0.876381        -0.439810
 C         3.741283         2.242112        -1.331963
 C         2.348460         2.745744        -1.149068
 O         2.083311         2.628772         0.269516
 C         2.236588         1.204181         0.569675
 H        -0.396508        -0.193620         0.942831
 H        -0.651624         1.047316        -0.353208
 H        -0.558391        -0.930104        -0.595217
 H         2.439652        -0.543688        -2.164309
 H         4.400855         0.411909         0.008812
 H         4.567817         2.765906        -0.804357
 H         4.010595         2.088491        -2.447593
 H         2.216488         3.760606        -1.503710
 H         1.831183         2.012372        -1.741446
 H         2.220737         0.943779         1.709301
