19
Iteration:  3562
 C         0.046494         0.151715        -0.278217
 C         1.467977         0.067631        -0.117315
 O         2.185867        -1.134334         0.215569
 C         2.578243        -0.321901        -1.024422
 C         3.526399         0.805038        -0.656729
 C         3.319373         2.045513        -1.605438
 C         2.717528         3.195254        -0.739649
 O         1.685753         2.495978         0.012024
 C         2.268926         1.233188         0.451854
 H        -0.565733         0.351308         0.707675
 H        -0.167782         1.164791        -0.690466
 H        -0.486887        -0.668107        -0.738967
 H         2.670373        -0.950002        -1.918264
 H         4.584176         0.711438        -0.279909
 H         4.297729         2.372126        -2.050996
 H         2.742334         1.994232        -2.482158
 H         3.413953         3.705204        -0.008791
 H         2.188166         3.917259        -1.393676
 H         2.504859         0.934271         1.483160
