19
Iteration:  1918
 C        -0.108760         0.191584        -0.105266
 C         1.446281         0.124041        -0.197215
 O         2.202050        -1.258842        -0.073876
 C         2.530206        -0.152345        -1.078865
 C         3.453699         0.832418        -0.401859
 C         3.704462         2.142697        -1.352551
 C         2.369313         2.928055        -1.107456
 O         1.890637         2.580755         0.124452
 C         2.265284         1.220565         0.486457
 H        -0.378509        -0.353954         0.807035
 H        -0.342972         1.267966        -0.176652
 H        -0.556017        -0.289275        -0.904331
 H         2.511420        -0.532770        -2.096081
 H         4.370646         0.510522         0.154002
 H         4.658440         2.642849        -0.847272
 H         4.097127         1.815543        -2.355212
 H         2.447454         4.043102        -1.320213
 H         1.685666         2.484375        -1.949537
 H         2.330106         1.257182         1.585668
