19
Iteration:  1711
 C        -0.058676         0.275747        -0.283979
 C         1.455601         0.157574        -0.219658
 O         2.087137        -1.126524        -0.028408
 C         2.649389        -0.209489        -1.069042
 C         3.527749         0.862669        -0.360701
 C         3.577148         2.052339        -1.435305
 C         2.227784         2.741496        -1.172464
 O         2.046863         2.609302         0.319899
 C         2.289553         1.231732         0.561763
 H        -0.358953        -0.052610         0.759482
 H        -0.556607         1.161062        -0.839522
 H        -0.455055        -0.598223        -0.810925
 H         2.756768        -0.602118        -2.032264
 H         4.579899         0.610706        -0.029132
 H         4.325974         2.868629        -1.218860
 H         3.586152         1.783238        -2.429685
 H         2.353958         3.845277        -1.466251
 H         1.385135         2.333489        -1.829933
 H         2.454260         1.027325         1.623226
