19
Iteration:  2908charge 0 multiplicity 1
 C        -0.034442         0.012388        -0.204349
 C         1.437445         0.156302        -0.168804
 O         2.188561        -1.145394         0.070328
 C         2.552676        -0.314147        -1.035038
 C         3.491950         0.849840        -0.486091
 C         3.375089         2.021359        -1.556961
 C         2.684522         3.192883        -0.886966
 O         1.813790         2.560027         0.128196
 C         2.228379         1.283792         0.402125
 H        -0.559751        -0.493145         0.632146
 H        -0.384538         1.012544        -0.248924
 H        -0.438673        -0.558491        -1.109227
 H         2.650553        -0.832718        -2.052697
 H         4.437460         0.517478         0.037577
 H         4.470175         2.351961        -1.697443
 H         3.091018         1.359475        -2.511323
 H         3.423342         3.818211        -0.303809
 H         2.133895         3.811497        -1.499877
 H         2.538518         1.395043         1.439425
