19
Iteration:  1655
 C        -0.101094         0.054392        -0.147220
 C         1.416182         0.115559        -0.090282
 O         2.159939        -1.084218         0.041352
 C         2.394578        -0.201900        -1.078056
 C         3.482390         0.851115        -0.540543
 C         3.775546         2.176190        -1.282997
 C         2.423193         2.902516        -1.114700
 O         1.865186         2.471608         0.057524
 C         2.359955         1.260877         0.500952
 H        -0.830784         0.112633         0.673010
 H        -0.340538         1.026467        -0.658906
 H        -0.390611        -0.602341        -0.929069
 H         2.321922        -0.505495        -2.150876
 H         4.476434         0.409341        -0.382218
 H         4.677629         2.640435        -0.877703
 H         3.983067         2.149532        -2.275928
 H         2.659513         4.000303        -0.958348
 H         1.655829         2.784109        -1.937759
 H         2.607735         1.319652         1.581946
