19
Iteration:  4415charge 0 multiplicity 1
 C        -0.083035         0.060863        -0.278758
 C         1.414115         0.098290        -0.237902
 O         2.213964        -1.237990        -0.093238
 C         2.541805        -0.306353        -1.089108
 C         3.406956         0.905442        -0.414541
 C         3.451803         2.037596        -1.471286
 C         2.463792         3.065752        -1.000145
 O         2.016131         2.710901         0.357620
 C         2.340340         1.265619         0.530597
 H        -0.681918        -0.051260         0.730312
 H        -0.494380         0.844594        -0.822850
 H        -0.304971        -0.891794        -0.864677
 H         2.467635        -0.527353        -2.121883
 H         4.330070         0.471935        -0.022885
 H         4.409618         2.488207        -1.590295
 H         3.195136         1.716242        -2.449824
 H         3.037449         3.955243        -0.743132
 H         1.609238         3.311064        -1.681503
 H         2.560411         1.036091         1.505810
