19
Iteration:  4503charge 0 multiplicity 1
 C        -0.012094         0.260520        -0.235324
 C         1.474782         0.109720        -0.157484
 O         2.126908        -1.143866        -0.117958
 C         2.579335        -0.130622        -1.075838
 C         3.472492         0.830824        -0.431267
 C         3.587902         2.108226        -1.398048
 C         2.212502         2.889476        -1.138138
 O         1.961047         2.523684         0.306984
 C         2.384271         1.146679         0.560537
 H        -0.381037         0.091088         0.876856
 H        -0.275308         1.245758        -0.453541
 H        -0.357632        -0.469005        -1.037287
 H         2.470582        -0.457867        -2.145685
 H         4.441329         0.348762        -0.172694
 H         4.421799         2.768432        -1.193660
 H         3.521054         1.752286        -2.423180
 H         2.410273         3.957082        -1.096071
 H         1.580492         2.382896        -1.834179
 H         2.605699         1.167213         1.594882
