19
Iteration:  4572
 C        -0.144507         0.071119        -0.077392
 C         1.347703         0.134943        -0.141815
 O         2.195800        -1.106470        -0.058339
 C         2.454350        -0.205501        -1.178839
 C         3.413317         0.829282        -0.626630
 C         3.796805         2.205084        -1.251080
 C         2.368680         2.885895        -1.170377
 O         1.943794         2.615145         0.248959
 C         2.378528         1.184861         0.475665
 H        -0.370967        -0.338186         0.879274
 H        -0.574207         1.169765        -0.022965
 H        -0.473081        -0.532658        -0.885967
 H         2.459647        -0.522409        -2.196005
 H         4.282615         0.319507        -0.120893
 H         4.251231         2.771229        -0.533374
 H         4.245119         2.127431        -2.217983
 H         2.408755         3.933053        -1.270692
 H         1.681095         2.357764        -1.802480
 H         2.712069         0.756289         1.392160
