19
Iteration:  1906
 C        -0.073690         0.195756        -0.105351
 C         1.379836         0.085381        -0.179190
 O         2.175975        -1.139298        -0.062027
 C         2.569518        -0.270662        -1.079114
 C         3.460258         0.906861        -0.484028
 C         3.746978         2.168472        -1.278515
 C         2.413331         2.881275        -1.230708
 O         1.867324         2.493510         0.157949
 C         2.262609         1.203550         0.501878
 H        -0.448848        -0.089799         0.890509
 H        -0.306074         1.290486        -0.026484
 H        -0.660101        -0.227534        -0.802330
 H         2.483538        -0.392204        -2.125133
 H         4.332089         0.440419        -0.026025
 H         4.504046         2.828365        -0.635613
 H         4.051894         2.164710        -2.388522
 H         2.452848         4.004317        -1.060668
 H         1.618535         2.644093        -2.079571
 H         2.407404         1.056818         1.602479
