19
Iteration:  3169charge 0 multiplicity 1
 C        -0.092816         0.242834        -0.188574
 C         1.453927         0.173726        -0.056261
 O         2.124191        -1.044955        -0.085631
 C         2.544240        -0.175444        -1.086715
 C         3.509861         0.846801        -0.464928
 C         3.642465         2.196403        -1.350382
 C         2.255876         2.662565        -1.255639
 O         1.956442         2.488034         0.240711
 C         2.422506         1.183449         0.587662
 H        -0.767255         0.078875         0.668083
 H        -0.297537         1.220994        -0.505632
 H        -0.335659        -0.509352        -1.037882
 H         2.551013        -0.359664        -2.185293
 H         4.608619         0.605400        -0.172589
 H         4.427617         2.817739        -0.859790
 H         3.758652         2.041659        -2.361114
 H         2.192234         3.744973        -1.550662
 H         1.374794         2.152903        -1.725796
 H         2.601677         0.995710         1.661357
