19
Iteration:  1819charge 0 multiplicity 1
 C        -0.035706         0.001086        -0.214426
 C         1.403681         0.216892        -0.188793
 O         2.102765        -1.080180        -0.022782
 C         2.539119        -0.214099        -1.162224
 C         3.456631         0.839244        -0.404075
 C         3.630532         2.023399        -1.404505
 C         2.401129         2.920672        -1.097943
 O         1.986554         2.655890         0.259043
 C         2.263272         1.235573         0.540274
 H        -0.485515        -0.035628         0.811318
 H        -0.588654         0.851502        -0.714478
 H        -0.044513        -0.839028        -0.852100
 H         2.741084        -0.712586        -2.054443
 H         4.454918         0.597057        -0.032548
 H         4.633049         2.541559        -1.336617
 H         3.618711         1.816430        -2.430201
 H         2.684974         4.006527        -1.197620
 H         1.678775         2.653254        -1.795484
 H         2.205766         1.086650         1.636715
