19
Iteration:  2859
 C        -0.085456        -0.055676        -0.284759
 C         1.405138         0.136933        -0.060434
 O         2.232769        -1.036299         0.182486
 C         2.549576        -0.368358        -1.026091
 C         3.352781         0.835286        -0.662121
 C         3.456726         2.079376        -1.621246
 C         2.784657         3.192341        -0.654949
 O         1.772402         2.554175        -0.024499
 C         2.280482         1.217450         0.419368
 H        -0.734638         0.074158         0.620130
 H        -0.441639         0.792096        -1.032676
 H        -0.346177        -1.061943        -0.568472
 H         2.686066        -0.970061        -1.886836
 H         4.386810         0.480130        -0.480291
 H         4.463054         2.167934        -1.902688
 H         2.794777         2.174085        -2.395662
 H         3.590695         3.556847         0.094044
 H         2.249408         4.132299        -1.142252
 H         2.570180         1.364411         1.477633
