19
Iteration:  3469charge 0 multiplicity 1
 C        -0.121109        -0.148336        -0.284293
 C         1.388329         0.067596        -0.109054
 O         2.165494        -1.079897         0.133760
 C         2.467977        -0.264307        -1.137567
 C         3.401236         0.817730        -0.587734
 C         3.613226         2.069802        -1.507361
 C         2.583235         3.118141        -0.977255
 O         1.939663         2.698125         0.259598
 C         2.336468         1.299162         0.458857
 H        -0.575834        -0.403253         0.656543
 H        -0.606453         0.855326        -0.348186
 H        -0.493828        -0.917978        -1.009314
 H         2.383679        -0.950647        -2.035433
 H         4.299004         0.576150        -0.056749
 H         4.665453         2.344438        -1.504411
 H         3.368838         1.840146        -2.574717
 H         2.999586         4.117859        -0.802466
 H         1.847830         3.215928        -1.780038
 H         2.631360         1.363312         1.530351
