19
Iteration:  3601charge 0 multiplicity 1
 C        -0.111055        -0.118909        -0.239260
 C         1.390634        -0.000336        -0.073000
 O         2.232404        -1.064685         0.184681
 C         2.493983        -0.245224        -0.981701
 C         3.397433         0.899375        -0.645340
 C         3.409127         2.057674        -1.643228
 C         2.890722         3.231689        -0.739075
 O         1.806808         2.554720        -0.013855
 C         2.223025         1.233445         0.468836
 H        -0.591878        -0.394819         0.639465
 H        -0.307311         0.870072        -0.592031
 H        -0.245686        -0.755099        -1.186840
 H         2.380831        -0.717539        -1.963802
 H         4.367377         0.557079        -0.324518
 H         4.355677         2.483900        -2.003388
 H         2.711989         1.729737        -2.537598
 H         3.711356         3.704386        -0.184288
 H         2.392788         4.062653        -1.278857
 H         2.499261         1.368904         1.564566
