19
Iteration:  1192
 C        -0.071893         0.141452        -0.298489
 C         1.415509         0.095896        -0.233133
 O         2.081172        -1.130026         0.090863
 C         2.642707        -0.305227        -1.070332
 C         3.471402         0.878854        -0.517564
 C         3.575748         2.099961        -1.437056
 C         2.304428         2.899718        -1.082425
 O         2.062570         2.622533         0.355821
 C         2.321888         1.271935         0.441778
 H        -0.551809        -0.372389         0.512455
 H        -0.389692         1.189669        -0.366119
 H        -0.467477        -0.136554        -1.268178
 H         2.731505        -0.964396        -2.018594
 H         4.354188         0.667132         0.081747
 H         4.556745         2.577988        -1.179442
 H         3.576370         1.886820        -2.570629
 H         2.293972         3.992371        -1.151404
 H         1.386484         2.487694        -1.727025
 H         2.530953         1.245280         1.545661
