19
Iteration:    46
 C        -0.084895         0.230179        -0.170415
 C         1.384323         0.088001        -0.228916
 O         2.110175        -1.069549         0.093253
 C         2.514794        -0.262309        -1.161991
 C         3.399059         0.836970        -0.506699
 C         3.612145         2.100433        -1.438799
 C         2.459874         2.984328        -1.079957
 O         2.081765         2.535695         0.241617
 C         2.267568         1.132777         0.465790
 H        -0.316114        -0.193704         0.800309
 H        -0.418298         1.274449        -0.119868
 H        -0.704300        -0.309510        -0.895062
 H         2.661265        -0.903388        -2.092163
 H         4.331876         0.472943        -0.025558
 H         4.587665         2.565049        -1.147610
 H         3.665323         1.903127        -2.492450
 H         2.695448         4.074857        -0.990055
 H         1.656790         2.862424        -1.797297
 H         2.370618         0.914650         1.484657
