19
Iteration:   298
 C        -0.022651         0.312185        -0.249061
 C         1.427933         0.132853         0.008270
 O         2.222800        -1.074485        -0.087887
 C         2.368199        -0.085318        -1.111090
 C         3.397112         0.857444        -0.533470
 C         3.649919         2.007719        -1.468335
 C         2.340027         2.813421        -1.062123
 O         2.005782         2.471140         0.284597
 C         2.328653         1.166746         0.570576
 H        -0.541317         0.422697         0.693346
 H        -0.088739         1.174210        -0.935111
 H        -0.362578        -0.594863        -0.777626
 H         2.138393        -0.455142        -2.199376
 H         4.294540         0.429725        -0.172804
 H         4.670452         2.417967        -1.145843
 H         3.910259         1.585216        -2.401309
 H         2.527005         3.912592        -1.231447
 H         1.552129         2.582719        -1.802554
 H         2.607264         1.160713         1.604788
