19
Iteration:  2753
 C        -0.161029        -0.061953        -0.212700
 C         1.400054         0.111836        -0.058994
 O         2.254269        -1.136378         0.129327
 C         2.488519        -0.268410        -1.053252
 C         3.431027         0.868262        -0.563649
 C         3.626273         2.045125        -1.525410
 C         2.666605         3.224370        -0.835879
 O         1.816658         2.498560        -0.014487
 C         2.242045         1.240707         0.429749
 H        -0.673026        -0.426842         0.636610
 H        -0.575550         0.979677        -0.229148
 H        -0.414707        -0.445583        -1.151853
 H         2.367777        -0.672502        -2.009972
 H         4.404550         0.417126        -0.137064
 H         4.604976         2.645434        -1.623240
 H         3.212969         2.049771        -2.613975
 H         3.266526         3.937910        -0.256236
 H         2.123281         3.816033        -1.485650
 H         2.458639         1.419583         1.503093
