19
Iteration:  4909charge 0 multiplicity 1
 C        -0.098225        -0.014433        -0.066631
 C         1.457978         0.063128        -0.121380
 O         2.144064        -1.199050         0.028422
 C         2.391874        -0.255733        -1.167844
 C         3.452942         0.851819        -0.604958
 C         3.710796         2.197339        -1.420162
 C         2.570400         3.165782        -0.915055
 O         1.818886         2.492441         0.056828
 C         2.346255         1.245462         0.470037
 H        -0.594269        -0.396654         0.889193
 H        -0.428285         1.091021        -0.147860
 H        -0.546934        -0.556048        -0.903487
 H         2.316621        -0.474835        -2.276935
 H         4.378721         0.444604        -0.145133
 H         4.661951         2.731627        -1.255032
 H         3.770001         1.918134        -2.519176
 H         3.178864         3.995161        -0.547094
 H         1.828642         3.613104        -1.532112
 H         2.273399         1.333150         1.609671
