19
Iteration:  1298charge 0 multiplicity 1
 C        -0.137663         0.021861        -0.062542
 C         1.382711         0.222188        -0.211120
 O         2.112016        -1.042012        -0.042746
 C         2.508245        -0.176867        -1.117498
 C         3.535269         0.851760        -0.506195
 C         3.747852         2.130459        -1.281714
 C         2.359641         2.856358        -1.167253
 O         1.977419         2.520185         0.156274
 C         2.276717         1.213775         0.474329
 H        -0.320685         0.083684         1.074344
 H        -0.652383         0.933661        -0.518775
 H        -0.311853        -0.998432        -0.439754
 H         2.528523        -0.576729        -2.197376
 H         4.534881         0.481292        -0.148955
 H         4.526730         2.722124        -0.730289
 H         4.193398         1.907245        -2.219535
 H         2.379602         3.935409        -1.202380
 H         1.612625         2.479514        -1.906977
 H         2.237740         1.393132         1.561031
