19
Iteration:   832charge 0 multiplicity 1
 C        -0.131265         0.082151        -0.192060
 C         1.451251         0.102705        -0.065757
 O         2.133800        -1.236959        -0.100143
 C         2.456660        -0.136446        -1.037312
 C         3.457572         0.857369        -0.424805
 C         3.629037         2.026794        -1.370543
 C         2.395409         3.015379        -1.157064
 O         1.972958         2.599447         0.155125
 C         2.382603         1.300600         0.548241
 H        -0.624610        -0.170888         0.702642
 H        -0.287271         1.158123        -0.355742
 H        -0.539789        -0.380503        -1.061773
 H         2.382865        -0.552246        -2.020278
 H         4.435852         0.463030        -0.081305
 H         4.487933         2.618311        -1.170088
 H         3.631214         1.619689        -2.364085
 H         2.830490         4.041327        -1.158829
 H         1.783811         2.626922        -1.981811
 H         2.728527         1.236039         1.634091
