19
Iteration:  4951charge 0 multiplicity 1
 C        -0.055628         0.006010        -0.187905
 C         1.414754         0.141179        -0.138670
 O         2.190171        -1.064492        -0.063229
 C         2.462993        -0.150075        -1.211700
 C         3.424548         0.859352        -0.501228
 C         3.621618         2.027902        -1.411293
 C         2.438393         2.948693        -1.030211
 O         2.005136         2.574525         0.259314
 C         2.261930         1.265266         0.561170
 H        -0.398801        -0.542159         0.859514
 H        -0.664876         0.945710        -0.206081
 H        -0.294254        -0.665565        -0.986404
 H         1.978893        -0.543740        -2.143885
 H         4.383557         0.363321        -0.274403
 H         4.619354         2.526736        -1.339618
 H         3.699426         1.776151        -2.442898
 H         2.757540         3.967100        -0.792846
 H         1.747539         3.085140        -1.844380
 H         2.460894         1.195188         1.701966
