19
Iteration:  3476charge 0 multiplicity 1
 C        -0.161446        -0.128220        -0.289293
 C         1.373660         0.092204        -0.091819
 O         2.178688        -1.129294         0.141564
 C         2.461998        -0.241366        -1.112973
 C         3.445768         0.848677        -0.626191
 C         3.599319         2.048864        -1.536041
 C         2.579121         3.133231        -0.989090
 O         1.953276         2.694946         0.223788
 C         2.281294         1.282693         0.545785
 H        -0.589691        -0.503239         0.678504
 H        -0.672481         0.802813        -0.638181
 H        -0.320806        -0.911570        -0.952584
 H         2.608486        -0.808966        -2.047306
 H         4.389549         0.443977        -0.076089
 H         4.754570         2.460106        -1.521474
 H         3.190999         1.927723        -2.549343
 H         3.147278         4.032786        -0.656282
 H         1.833567         3.281302        -1.784014
 H         2.820912         1.241790         1.533266
