19
Iteration:  3443charge 0 multiplicity 1
 C        -0.130119        -0.013968        -0.179635
 C         1.377272         0.212274        -0.245209
 O         2.208611        -1.090020         0.119364
 C         2.509169        -0.272596        -1.117054
 C         3.417118         0.778802        -0.601103
 C         3.614608         2.124465        -1.415811
 C         2.453057         3.024622        -1.061263
 O         2.033687         2.607605         0.219586
 C         2.223269         1.199050         0.467357
 H        -0.301980        -0.466236         0.837744
 H        -0.783102         0.848380        -0.106635
 H        -0.498403        -0.639864        -0.933491
 H         2.596774        -0.923294        -1.959519
 H         4.382313         0.537778        -0.028169
 H         4.695323         2.594395        -1.035542
 H         3.817448         2.059862        -2.514136
 H         2.772254         4.107792        -0.926232
 H         1.720463         3.176274        -1.868105
 H         2.384310         1.237219         1.572349
