19
Iteration:  2980
 C        -0.053187         0.064086        -0.209240
 C         1.405047         0.044722        -0.077535
 O         2.191838        -1.100046         0.082676
 C         2.478901        -0.276676        -1.026711
 C         3.421766         0.789208        -0.599863
 C         3.581341         2.156623        -1.507739
 C         2.553965         3.100711        -0.964852
 O         1.812038         2.518158         0.133093
 C         2.372800         1.221202         0.463731
 H        -0.765560        -0.082084         0.619218
 H        -0.303256         1.147955        -0.615568
 H        -0.254329        -0.667732        -0.999890
 H         2.554189        -0.687804        -2.016307
 H         4.385963         0.506380        -0.070384
 H         4.576698         2.593835        -1.419604
 H         3.385218         1.987415        -2.590258
 H         3.110482         3.954695        -0.536763
 H         1.921055         3.751988        -1.706143
 H         2.429273         1.043866         1.582501
