19
Iteration:  4831
 C        -0.045976        -0.116042        -0.082897
 C         1.362126         0.110492        -0.081417
 O         2.201520        -1.105543        -0.031718
 C         2.414738        -0.259575        -1.070731
 C         3.426936         0.810019        -0.551334
 C         3.512363         2.102118        -1.527940
 C         2.840528         3.237522        -0.650441
 O         1.729288         2.500558        -0.141464
 C         2.298466         1.324561         0.405851
 H        -0.508774        -0.057446         0.996305
 H        -0.656783         0.526895        -0.678883
 H        -0.151672        -1.119023        -0.447986
 H         2.426246        -0.573960        -2.083398
 H         4.378235         0.483226        -0.123637
 H         4.568022         2.411184        -1.802450
 H         3.018540         1.798877        -2.466378
 H         3.536629         3.504217         0.254921
 H         2.552925         4.143282        -1.099877
 H         2.457683         1.496419         1.543042
