19
Iteration:  2242
 C        -0.027317         0.039520        -0.252881
 C         1.377681         0.174773        -0.121166
 O         2.124924        -1.073689        -0.043155
 C         2.447288        -0.197521        -1.149741
 C         3.499632         0.779950        -0.454691
 C         3.660480         2.113108        -1.317439
 C         2.328924         2.920988        -1.135167
 O         1.975660         2.600603         0.231744
 C         2.376226         1.199163         0.560299
 H        -0.523753         0.170249         0.716232
 H        -0.464749         0.892240        -0.836469
 H        -0.429670        -0.774752        -0.704539
 H         2.554812        -0.745399        -2.147234
 H         4.507321         0.594253        -0.174553
 H         4.571857         2.716740        -1.026397
 H         3.973139         1.883910        -2.403014
 H         2.385219         4.033289        -1.097892
 H         1.614390         2.609813        -1.937084
 H         2.480500         1.273987         1.676415
