19
Iteration:  4833
 C        -0.047206        -0.118061        -0.056768
 C         1.385972         0.104857        -0.088774
 O         2.193775        -1.110197        -0.040344
 C         2.416834        -0.256706        -1.076159
 C         3.409966         0.810384        -0.537124
 C         3.509207         2.109207        -1.522518
 C         2.831052         3.228449        -0.649181
 O         1.743362         2.495463        -0.153855
 C         2.297721         1.330263         0.418102
 H        -0.526617        -0.045529         0.895994
 H        -0.652101         0.597836        -0.711798
 H        -0.182124        -1.100469        -0.452426
 H         2.436324        -0.631967        -2.121753
 H         4.372806         0.491692        -0.058214
 H         4.554964         2.385809        -1.817082
 H         3.032990         1.816964        -2.535480
 H         3.479174         3.571677         0.292089
 H         2.546445         4.185485        -1.121062
 H         2.525872         1.505287         1.501050
