19
Iteration:  3369
 C         0.037639         0.376402        -0.166040
 C         1.434139         0.114977        -0.030909
 O         2.136464        -1.110529        -0.133345
 C         2.511893        -0.181766        -1.102919
 C         3.525045         0.926203        -0.431048
 C         3.682821         2.131591        -1.385839
 C         2.258697         2.692855        -1.148519
 O         1.869537         2.446656         0.183504
 C         2.372026         1.179752         0.581052
 H        -0.473854         0.224936         0.814804
 H        -0.338753         1.355097        -0.625636
 H        -0.306912        -0.384320        -0.828982
 H         2.570398        -0.375645        -2.169064
 H         4.439130         0.344149        -0.158862
 H         4.381532         2.840196        -0.993472
 H         3.928475         2.140959        -2.429446
 H         1.954468         3.710800        -1.449628
 H         1.632240         2.087811        -1.815669
 H         2.484914         1.236025         1.695667
