19
Iteration:   167
 C        -0.086139         0.258048        -0.155138
 C         1.433318         0.159583        -0.092722
 O         2.071639        -1.166329        -0.081810
 C         2.477395        -0.245240        -1.055294
 C         3.466779         0.845377        -0.527982
 C         3.658114         2.109355        -1.358776
 C         2.408591         2.959943        -1.149096
 O         1.923272         2.499415         0.210057
 C         2.464010         1.189295         0.524783
 H        -0.653050         0.080103         0.743027
 H        -0.445515         1.254824        -0.450028
 H        -0.468769        -0.473939        -0.882017
 H         2.259323        -0.736972        -2.072369
 H         4.418528         0.558173        -0.055812
 H         4.643947         2.516580        -1.016115
 H         3.724792         1.805810        -2.385615
 H         2.492764         4.083136        -1.202064
 H         1.715466         2.544323        -1.862854
 H         2.762492         1.163107         1.533165
