19
Iteration:  4127charge 0 multiplicity 1
 C        -0.078463        -0.073886        -0.454882
 C         1.340816         0.119834        -0.200610
 O         2.188039        -1.148502         0.159614
 C         2.465012        -0.296336        -1.053418
 C         3.384430         0.869094        -0.707300
 C         3.486478         2.041635        -1.517049
 C         2.448979         3.033855        -0.909414
 O         2.117915         2.734791         0.449675
 C         2.338103         1.301487         0.511982
 H        -0.687445        -0.152889         0.369877
 H        -0.479557         0.773040        -1.139969
 H        -0.026730        -0.985953        -1.000606
 H         2.478572        -0.832613        -1.940467
 H         4.412704         0.591125        -0.424061
 H         4.443784         2.468335        -1.271899
 H         3.491146         2.122736        -2.582164
 H         2.698747         4.097609        -0.929662
 H         1.747824         3.060500        -1.718900
 H         2.637536         0.978668         1.505673
