19
Iteration:  3946
 C        -0.094735        -0.124969        -0.076392
 C         1.379560         0.124332        -0.152397
 O         2.179497        -1.031026         0.047351
 C         2.467341        -0.200079        -1.163954
 C         3.413990         0.819645        -0.533271
 C         3.654436         2.080842        -1.420184
 C         2.612515         3.120639        -0.988351
 O         1.938952         2.598537         0.147436
 C         2.183224         1.228330         0.398781
 H        -0.309976        -0.756855         0.865892
 H        -0.702694         0.744508        -0.119468
 H        -0.399716        -0.804551        -0.821086
 H         2.464780        -0.821250        -2.043993
 H         4.243109         0.397556         0.039326
 H         4.669059         2.614148        -1.604518
 H         3.425118         1.762821        -2.491058
 H         3.191882         4.096998        -0.796657
 H         1.990005         3.421903        -1.779873
 H         2.369034         1.131089         1.492864
