19
Iteration:  3950charge 0 multiplicity 1
 C        -0.125781        -0.126516        -0.026025
 C         1.334326         0.083995        -0.199529
 O         2.188912        -1.027325         0.043975
 C         2.473789        -0.186997        -1.159928
 C         3.427737         0.835059        -0.513511
 C         3.692163         2.067027        -1.454763
 C         2.609214         3.138662        -1.025752
 O         1.928547         2.607699         0.170758
 C         2.193484         1.217988         0.429223
 H        -0.310030        -0.727951         0.800361
 H        -0.720740         0.785720        -0.093873
 H        -0.358553        -0.780485        -0.978889
 H         2.543524        -0.832566        -2.115092
 H         4.329342         0.428832        -0.018205
 H         4.640825         2.539365        -1.440751
 H         3.528649         1.795235        -2.477384
 H         3.213195         4.001010        -0.813657
 H         1.828371         3.471231        -1.799921
 H         2.397534         1.134439         1.535212
