19
Iteration:  3228charge 0 multiplicity 1
 C        -0.124897         0.121438        -0.205723
 C         1.356666         0.154808        -0.216154
 O         2.210454        -1.115627         0.112621
 C         2.562484        -0.262637        -1.069205
 C         3.499309         0.852195        -0.537917
 C         3.644570         2.097609        -1.413254
 C         2.316897         3.010229        -1.041885
 O         1.958064         2.488011         0.223183
 C         2.356726         1.222416         0.416500
 H        -0.521932         0.137286         0.860148
 H        -0.619191         1.001959        -0.818702
 H        -0.543063        -0.727404        -0.700475
 H         2.729252        -0.647977        -2.054948
 H         4.495985         0.557878        -0.216195
 H         4.572319         2.593301        -1.310357
 H         3.583004         1.976871        -2.513979
 H         2.777254         4.020641        -0.933165
 H         1.410411         3.043748        -1.765913
 H         2.316313         1.171965         1.527946
