19
Iteration:  1726charge 0 multiplicity 1
 C        -0.027800         0.176779        -0.346488
 C         1.467313         0.201877        -0.196660
 O         2.045596        -1.077328        -0.002435
 C         2.592931        -0.202554        -1.021045
 C         3.591416         0.917745        -0.428107
 C         3.540510         2.021654        -1.444015
 C         2.262960         2.790427        -1.068854
 O         1.962713         2.560601         0.282397
 C         2.413900         1.227109         0.543667
 H        -0.560958         0.204719         0.535013
 H        -0.304742         1.147155        -0.603795
 H        -0.370362        -0.525114        -1.125726
 H         2.633377        -0.593482        -2.070675
 H         4.470863         0.580032         0.124998
 H         4.531547         2.470146        -1.611888
 H         3.516804         1.456651        -2.504380
 H         2.243708         3.855220        -1.108521
 H         1.371295         2.387874        -1.566978
 H         2.477417         1.135843         1.627982
