19
Iteration:   594
 C        -0.128434         0.176639        -0.310630
 C         1.345568         0.124105        -0.064160
 O         2.241109        -1.175899         0.013247
 C         2.429410        -0.202046        -1.082609
 C         3.435604         0.819961        -0.574949
 C         3.689262         2.036714        -1.438313
 C         2.373007         2.895751        -1.090633
 O         2.030386         2.651547         0.307321
 C         2.331809         1.243969         0.540028
 H        -0.668371        -0.261821         0.583744
 H        -0.190508         1.336370        -0.096571
 H        -0.376752        -0.243340        -1.330362
 H         2.142877        -0.589235        -2.054323
 H         4.356263         0.259478        -0.338946
 H         4.675111         2.460897        -1.217371
 H         3.606928         1.869174        -2.563914
 H         2.519254         4.004472        -1.184379
 H         1.423908         2.673211        -1.615522
 H         2.692030         1.182982         1.581287
