19
Iteration:  1943charge 0 multiplicity 1
 C        -0.064557         0.035716        -0.217410
 C         1.467394         0.187244        -0.139239
 O         2.110089        -1.039419        -0.062821
 C         2.571288        -0.175761        -1.078058
 C         3.449147         0.817938        -0.443047
 C         3.626764         2.041711        -1.415741
 C         2.383538         2.882968        -1.140415
 O         1.911260         2.583630         0.233607
 C         2.320200         1.268378         0.591439
 H        -0.477191        -0.533194         0.618734
 H        -0.340387         1.044081        -0.419473
 H        -0.377939        -0.558837        -1.195775
 H         2.304405        -0.380239        -2.169482
 H         4.410066         0.470962         0.096309
 H         4.528787         2.483340        -0.966376
 H         3.904056         1.752862        -2.371314
 H         2.670973         3.910173        -1.314359
 H         1.679682         2.612482        -1.913664
 H         2.541668         1.241958         1.646051
