19
Iteration:   618
 C        -0.021445         0.102717        -0.323522
 C         1.416660         0.169668        -0.022305
 O         2.106471        -1.115607        -0.063089
 C         2.424573        -0.200104        -1.083270
 C         3.446286         0.786566        -0.465096
 C         3.560601         2.021077        -1.394511
 C         2.344998         2.955530        -1.132291
 O         2.098651         2.636362         0.270282
 C         2.409634         1.227177         0.533242
 H        -0.535387        -0.087703         0.680572
 H        -0.287176         1.177091        -0.601016
 H        -0.143317        -0.762296        -1.039909
 H         2.212763        -0.543308        -2.120822
 H         4.258571         0.183860        -0.029045
 H         4.531836         2.501737        -1.182430
 H         3.503574         1.762269        -2.500112
 H         2.522316         4.040331        -1.102772
 H         1.376911         2.832930        -1.745657
 H         2.542048         1.258121         1.613533
