19
Iteration:  1039charge 0 multiplicity 1
 C         0.006102         0.108992        -0.192791
 C         1.403564         0.035979        -0.112591
 O         2.101812        -1.192789        -0.128639
 C         2.442004        -0.103120        -1.054654
 C         3.460671         0.900933        -0.447424
 C         3.714637         2.076185        -1.325247
 C         2.352509         2.817237        -1.215916
 O         1.966971         2.655599         0.194181
 C         2.364874         1.299791         0.576630
 H        -0.498866        -0.415168         0.691530
 H        -0.428617         1.162627        -0.083103
 H        -0.475587        -0.417463        -1.025563
 H         2.281831        -0.393859        -2.084413
 H         4.313598         0.438491         0.036563
 H         4.595330         2.652280        -0.932195
 H         3.897887         1.754415        -2.403033
 H         2.483941         3.864295        -1.419930
 H         1.502006         2.396202        -1.634616
 H         2.531822         1.366785         1.696165
