19
Iteration:  1775charge 0 multiplicity 1
 C        -0.086410         0.199677        -0.405951
 C         1.414988         0.039067        -0.129639
 O         2.188398        -1.122770         0.188563
 C         2.604450        -0.360050        -1.001725
 C         3.401689         0.816792        -0.613955
 C         3.600421         2.177896        -1.458042
 C         2.370703         3.009303        -1.060748
 O         2.016818         2.593353         0.298906
 C         2.277234         1.209713         0.444718
 H        -0.827968        -0.128191         0.463953
 H        -0.436177         1.279470        -0.676959
 H        -0.269972        -0.429049        -1.265952
 H         2.612559        -0.877918        -1.914980
 H         4.254771         0.302994        -0.175767
 H         4.568027         2.727737        -1.293380
 H         3.609774         2.043492        -2.499919
 H         2.358369         4.116434        -0.924827
 H         1.538435         2.728701        -1.678600
 H         2.551776         1.041072         1.512592
