19
Iteration:  2917charge 0 multiplicity 1
 C        -0.122684         0.007427        -0.218815
 C         1.431866         0.130352        -0.192607
 O         2.190557        -1.131437         0.083201
 C         2.587129        -0.294628        -1.028490
 C         3.477448         0.884976        -0.436626
 C         3.451488         2.021923        -1.519947
 C         2.644992         3.126786        -0.935404
 O         1.812680         2.569300         0.111023
 C         2.312686         1.226041         0.414007
 H        -0.371403        -0.452641         0.749433
 H        -0.538092         1.083304        -0.097702
 H        -0.521556        -0.374317        -1.201716
 H         2.451482        -0.592442        -2.084251
 H         4.516270         0.615067         0.006549
 H         4.429249         2.404114        -1.896403
 H         2.833478         1.828095        -2.412528
 H         3.444119         3.845994        -0.484602
 H         2.053946         3.782105        -1.558988
 H         2.486728         1.059977         1.517430
