19
Iteration:    18charge 0 multiplicity 1
 C        -0.096310         0.223086        -0.102021
 C         1.414088         0.282428        -0.312015
 O         1.960647        -1.192575         0.016595
 C         2.576489        -0.455149        -1.060466
 C         3.546921         0.746679        -0.622427
 C         3.665178         2.124334        -1.423659
 C         2.400856         2.996386        -1.128002
 O         1.914645         2.686357         0.325895
 C         2.429980         1.196185         0.531380
 H        -0.181639        -0.305116         0.882890
 H        -0.802970         1.070281        -0.161407
 H        -0.581563        -0.471553        -0.825371
 H         2.714235        -0.983563        -2.028195
 H         4.592622         0.367233        -0.384294
 H         4.532357         2.576146        -0.907378
 H         3.897263         2.173753        -2.529443
 H         2.642958         4.066819        -1.221069
 H         1.604466         2.821535        -1.908753
 H         2.559050         0.864131         1.641981
