19
Iteration:  3533
 C        -0.082417         0.133878        -0.254391
 C         1.441463         0.099464        -0.194788
 O         2.236529        -1.141696         0.130325
 C         2.594328        -0.409377        -0.962446
 C         3.505967         0.865351        -0.553633
 C         3.365948         2.045524        -1.626635
 C         2.621961         3.159351        -0.856620
 O         1.808034         2.534429         0.123947
 C         2.257284         1.230404         0.453490
 H        -0.346529         0.450190         0.724720
 H        -0.337174         1.024156        -0.869246
 H        -0.629166        -0.709718        -0.588628
 H         2.606070        -0.833102        -2.019227
 H         4.475698         0.802394         0.001895
 H         4.482756         2.410935        -1.819602
 H         2.960523         1.879724        -2.664582
 H         3.330022         3.820203        -0.313947
 H         2.039229         3.854905        -1.454374
 H         2.480939         0.957149         1.506273
