19
Iteration:  1668
 C        -0.069260         0.160710        -0.254530
 C         1.392140         0.151517        -0.040210
 O         2.154746        -1.075868         0.063221
 C         2.486575        -0.165225        -1.073411
 C         3.476801         0.834413        -0.663423
 C         3.761052         2.185380        -1.342022
 C         2.415703         2.897357        -1.166609
 O         1.860046         2.478927         0.183012
 C         2.319840         1.167920         0.549392
 H        -0.418421         0.042321         0.718191
 H        -0.376889         1.100836        -0.663433
 H        -0.391238        -0.742777        -0.732288
 H         2.335322        -0.697950        -1.950208
 H         4.365953         0.290804        -0.239139
 H         4.425615         2.673503        -0.614887
 H         4.151978         2.026014        -2.322636
 H         2.253475         4.002175        -1.257511
 H         1.816223         2.434370        -1.984221
 H         2.439675         1.082895         1.626856
