19
Iteration:  2103charge 0 multiplicity 1
 C        -0.069973         0.028019        -0.249631
 C         1.366147         0.222358        -0.197905
 O         2.133764        -1.042076         0.097681
 C         2.495610        -0.278764        -1.081721
 C         3.428688         0.779977        -0.579147
 C         3.662257         2.178693        -1.317647
 C         2.337672         2.861730        -1.113846
 O         2.002284         2.559573         0.295412
 C         2.373710         1.279319         0.367895
 H        -0.474299        -0.284098         0.794670
 H        -0.503171         1.121498        -0.479048
 H        -0.306677        -0.640117        -1.068386
 H         2.652620        -0.775637        -2.091536
 H         4.340313         0.351065        -0.124960
 H         4.544738         2.605672        -0.805301
 H         4.035531         2.103246        -2.360116
 H         2.399024         3.998756        -1.072201
 H         1.607207         2.550834        -1.835385
 H         2.630720         1.279855         1.450872
