19
Iteration:  2682
 C        -0.056961         0.067380        -0.200607
 C         1.411864         0.020149        -0.101251
 O         2.186842        -1.160294         0.082686
 C         2.520253        -0.199339        -1.043676
 C         3.470572         0.910890        -0.490754
 C         3.568580         2.025615        -1.515458
 C         2.641021         3.140242        -0.881996
 O         1.760976         2.467497         0.007310
 C         2.293932         1.325014         0.408207
 H        -0.482169        -0.210822         0.814340
 H        -0.523342         1.005746        -0.394626
 H        -0.378596        -0.683920        -1.015276
 H         2.449755        -0.572976        -2.137675
 H         4.304609         0.723856         0.130955
 H         4.572774         2.289047        -1.531767
 H         3.302756         1.646042        -2.471268
 H         3.297320         3.766903        -0.360553
 H         1.930361         3.829402        -1.448073
 H         2.400003         1.250802         1.505182
