19
Iteration:  3656
 C        -0.156703        -0.189942        -0.059006
 C         1.294857         0.145019        -0.260792
 O         2.237455        -1.080731         0.122571
 C         2.440177        -0.270220        -1.125944
 C         3.438888         0.909281        -0.536266
 C         3.567683         2.061150        -1.557447
 C         2.893922         3.198041        -0.777363
 O         1.813146         2.564933         0.025070
 C         2.195118         1.291149         0.377694
 H        -0.209109        -0.409998         0.939203
 H        -0.894747         0.534582        -0.223297
 H        -0.247374        -1.197715        -0.595065
 H         2.614153        -0.895778        -1.965680
 H         4.262370         0.614758         0.078021
 H         4.457571         2.564502        -1.874533
 H         3.043625         1.806925        -2.579619
 H         3.625103         3.808848        -0.211094
 H         2.298932         3.815202        -1.489774
 H         2.380520         1.326636         1.451619
