19
Iteration:  3327
 C        -0.022397         0.104277        -0.191823
 C         1.444743         0.210024        -0.219900
 O         2.163976        -1.058373         0.026383
 C         2.571319        -0.341061        -1.092082
 C         3.418463         0.785091        -0.596528
 C         3.610123         2.131461        -1.366122
 C         2.318361         2.891589        -1.086526
 O         1.987401         2.579102         0.243798
 C         2.292507         1.267854         0.519372
 H        -0.595055        -0.031021         0.751598
 H        -0.349067         1.220259        -0.399202
 H        -0.452459        -0.607634        -0.929489
 H         2.524596        -0.928939        -2.025230
 H         4.333031         0.487928        -0.111690
 H         4.418358         2.615406        -0.933527
 H         3.960799         1.923526        -2.374355
 H         2.384961         3.992569        -1.057070
 H         1.450136         2.767879        -1.824242
 H         2.542562         1.083095         1.613747
