19
Iteration:  2414charge 0 multiplicity 1
 C        -0.064471         0.042469        -0.234563
 C         1.393976         0.153790        -0.212011
 O         2.152750        -1.045387         0.017508
 C         2.433459        -0.231617        -1.152716
 C         3.488822         0.813699        -0.545649
 C         3.697639         2.157721        -1.241541
 C         2.341241         2.762326        -1.154317
 O         2.002621         2.684964         0.237984
 C         2.335829         1.278316         0.520466
 H        -0.424582        -0.126446         0.829908
 H        -0.588162         0.960887        -0.675382
 H        -0.513576        -0.923252        -0.698861
 H         2.301605        -0.561914        -2.259997
 H         4.404541         0.332834        -0.114576
 H         4.422758         2.704446        -0.553035
 H         4.032828         1.888581        -2.200098
 H         2.474560         3.845952        -1.230144
 H         1.506394         2.391088        -1.865254
 H         2.617022         0.988680         1.552954
