19
Iteration:  1267
 C        -0.015219         0.221935        -0.113431
 C         1.455343         0.171287        -0.185175
 O         2.111787        -1.169411        -0.116333
 C         2.570893        -0.249421        -1.114003
 C         3.537754         0.871706        -0.460239
 C         3.671937         2.064088        -1.304235
 C         2.263817         2.784762        -1.127035
 O         1.915055         2.637368         0.207651
 C         2.291797         1.252639         0.497722
 H        -0.299259         0.002390         0.961006
 H        -0.357039         1.256303        -0.477250
 H        -0.513174        -0.508279        -0.790936
 H         2.735628        -0.619351        -2.202752
 H         4.488236         0.535785        -0.022334
 H         4.435879         2.732856        -0.835350
 H         3.870423         1.715237        -2.371507
 H         2.244398         3.816920        -1.364069
 H         1.560218         2.275695        -1.711508
 H         2.322924         1.345758         1.656919
