19
Iteration:  1636charge 0 multiplicity 1
 C        -0.076873         0.045905        -0.105709
 C         1.470253         0.105185        -0.046452
 O         2.180476        -1.144681        -0.067131
 C         2.452631        -0.197683        -1.055305
 C         3.401206         0.809755        -0.510762
 C         3.722976         2.057250        -1.307742
 C         2.542542         3.098370        -1.138647
 O         1.783483         2.578618         0.055625
 C         2.279575         1.249037         0.487811
 H        -0.354947        -0.192991         0.872680
 H        -0.617111         0.894697        -0.433266
 H        -0.416813        -0.727874        -0.810284
 H         2.363150        -0.582373        -2.014711
 H         4.280586         0.390531         0.081449
 H         4.668519         2.580264        -0.976864
 H         4.135656         1.735087        -2.353754
 H         2.825079         4.157948        -0.955949
 H         1.927194         2.967761        -2.021443
 H         2.484560         1.264656         1.542306
