19
Iteration:   292
 C        -0.023246         0.278957        -0.252693
 C         1.430455         0.110810        -0.016506
 O         2.220979        -1.090094        -0.064059
 C         2.302671        -0.092143        -1.147351
 C         3.447048         0.852556        -0.541451
 C         3.677189         2.011916        -1.414051
 C         2.393313         2.832175        -1.063491
 O         1.979416         2.496542         0.244001
 C         2.339023         1.173637         0.643590
 H        -0.645533         0.470134         0.649172
 H        -0.063187         1.189974        -0.861783
 H        -0.495963        -0.539639        -0.806004
 H         2.226570        -0.402823        -2.131743
 H         4.425153         0.249020        -0.295898
 H         4.587357         2.616379        -1.447594
 H         3.620664         1.737121        -2.566580
 H         2.391687         3.899389        -1.220682
 H         1.573440         2.566069        -1.789547
 H         2.613973         1.137371         1.734011
