19
Iteration:   990charge 0 multiplicity 1
 C        -0.069249         0.149175        -0.213414
 C         1.408854         0.146104        -0.201050
 O         2.073379        -1.090422         0.159392
 C         2.500750        -0.349411        -1.112599
 C         3.483286         0.853035        -0.579176
 C         3.674048         2.221045        -1.370386
 C         2.404351         2.922845        -1.128816
 O         1.985465         2.572697         0.250060
 C         2.366718         1.180129         0.414046
 H        -0.552623        -0.530668         0.440761
 H        -0.470439         1.093929        -0.025044
 H        -0.519025        -0.206790        -1.144247
 H         2.524536        -0.822577        -2.152627
 H         4.419008         0.570737        -0.036529
 H         4.572348         2.711398        -0.951817
 H         3.747255         2.025557        -2.432890
 H         2.270414         4.017692        -1.012083
 H         1.541938         2.476677        -1.748231
 H         2.536974         0.919446         1.442742
