19
Iteration:    33
 C        -0.046142         0.174786        -0.090233
 C         1.425679         0.157451        -0.295519
 O         1.936395        -1.123579         0.033126
 C         2.573563        -0.422020        -1.049040
 C         3.529388         0.777369        -0.566968
 C         3.637546         2.117507        -1.366033
 C         2.377772         3.020913        -1.017918
 O         2.037597         2.597381         0.246909
 C         2.331685         1.256778         0.293080
 H        -0.263420        -0.246994         0.894883
 H        -0.252833         1.229922        -0.045503
 H        -0.603303        -0.356355        -0.861704
 H         2.548090        -0.949918        -1.962371
 H         4.405752         0.577383        -0.050040
 H         4.508722         2.645402        -1.026299
 H         3.744448         1.913120        -2.427810
 H         2.603423         4.078753        -0.958788
 H         1.528636         2.860356        -1.686041
 H         2.474051         1.116522         1.381117
