19
Iteration:  3622
 C        -0.140838        -0.206661        -0.154147
 C         1.383330         0.126810        -0.189844
 O         2.246352        -1.114647         0.141045
 C         2.450532        -0.362450        -1.043031
 C         3.343447         0.840969        -0.575600
 C         3.469508         2.052080        -1.577839
 C         2.897254         3.234559        -0.782167
 O         1.832078         2.681146         0.067737
 C         2.227580         1.353468         0.358834
 H        -0.262189        -0.643355         0.764561
 H        -0.792592         0.592833        -0.378273
 H        -0.295412        -0.971231        -0.967170
 H         2.648737        -0.940019        -1.952023
 H         4.283380         0.791174        -0.057350
 H         4.525651         2.244215        -1.881701
 H         2.788469         1.922007        -2.496002
 H         3.597080         3.821091        -0.136489
 H         2.386583         3.977826        -1.429314
 H         2.523548         1.126627         1.387008
