19
Iteration:  2120charge 0 multiplicity 1
 C        -0.130063        -0.016485        -0.241246
 C         1.382317         0.179588        -0.175660
 O         2.124974        -1.044242         0.026754
 C         2.479218        -0.253527        -1.135434
 C         3.521335         0.856696        -0.593363
 C         3.732713         2.108682        -1.320258
 C         2.360574         2.863870        -1.119890
 O         2.010491         2.712076         0.259140
 C         2.312120         1.237638         0.566841
 H        -0.381100        -0.507773         0.696632
 H        -0.761383         0.836808        -0.168320
 H        -0.257912        -0.709907        -1.083122
 H         2.272525        -0.686702        -2.087260
 H         4.410778         0.364398        -0.207475
 H         4.466165         2.734723        -0.807025
 H         3.961491         2.021352        -2.394781
 H         2.368972         3.858521        -1.512892
 H         1.599589         2.267469        -1.742748
 H         2.492295         0.876316         1.594127
