19
Iteration:  1526
 C        -0.049392         0.096583        -0.230409
 C         1.413097         0.153562        -0.131428
 O         2.166828        -1.115839         0.095263
 C         2.525092        -0.212499        -1.056711
 C         3.470660         0.806820        -0.501511
 C         3.672019         2.076664        -1.420567
 C         2.466429         3.055364        -1.094416
 O         1.815252         2.504431         0.162042
 C         2.339553         1.231512         0.466365
 H        -0.651021         0.091372         0.673996
 H        -0.366137         1.028286        -0.749795
 H        -0.421319        -0.751217        -0.786288
 H         2.395924        -0.517473        -2.132906
 H         4.368693         0.428116         0.080207
 H         4.693070         2.581018        -1.292739
 H         3.462804         1.654655        -2.507501
 H         2.716219         4.076645        -0.797795
 H         1.711164         3.054750        -1.861068
 H         2.560859         1.082442         1.515068
