19
Iteration:  1437charge 0 multiplicity 1
 C        -0.012357         0.169152        -0.440845
 C         1.496563         0.203065        -0.046800
 O         2.081344        -1.043385         0.071640
 C         2.466310        -0.237164        -1.020932
 C         3.485876         0.790940        -0.546697
 C         3.586972         2.138306        -1.351133
 C         2.198982         2.839987        -1.110716
 O         2.018328         2.539835         0.221750
 C         2.455975         1.200588         0.576748
 H        -0.657084        -0.163577         0.359568
 H        -0.388040         1.144245        -0.709613
 H        -0.094856        -0.602508        -1.177408
 H         2.400908        -0.729175        -2.072935
 H         4.523052         0.609899        -0.129096
 H         4.548706         2.683523        -1.121772
 H         3.555884         1.652172        -2.426813
 H         2.320950         3.936700        -1.274726
 H         1.438420         2.594989        -1.799483
 H         2.852043         1.119215         1.583446
