19
Iteration:  2854
 C        -0.075962        -0.049417        -0.275018
 C         1.412458         0.133612        -0.097957
 O         2.229882        -1.035097         0.208051
 C         2.557532        -0.389550        -1.039204
 C         3.336535         0.836995        -0.684437
 C         3.435812         2.128927        -1.595880
 C         2.864636         3.187291        -0.650628
 O         1.717131         2.541824        -0.008344
 C         2.271896         1.241178         0.432687
 H        -0.652828         0.150786         0.623693
 H        -0.412687         0.583432        -1.016125
 H        -0.364828        -1.084737        -0.567208
 H         2.564835        -0.935711        -2.044217
 H         4.358564         0.552617        -0.395555
 H         4.519579         2.129365        -1.973922
 H         2.793653         2.006761        -2.592605
 H         3.496515         3.538890         0.128629
 H         2.451205         3.956015        -1.237565
 H         2.684573         1.373639         1.436341
