19
Iteration:  2744
 C        -0.157330         0.006986        -0.211539
 C         1.416033         0.035672        -0.039318
 O         2.223004        -1.101927         0.090059
 C         2.528207        -0.297129        -1.057698
 C         3.455452         0.852223        -0.606262
 C         3.605061         2.132231        -1.518876
 C         2.702846         3.203172        -0.868757
 O         1.768517         2.470923        -0.009297
 C         2.219369         1.300824         0.520241
 H        -0.631671        -0.588285         0.611307
 H        -0.412401         1.025099        -0.108575
 H        -0.550080        -0.420470        -1.143722
 H         2.538795        -0.832975        -2.004651
 H         4.480178         0.578424        -0.288418
 H         4.776924         2.231203        -1.545197
 H         3.245702         1.774255        -2.562233
 H         3.201834         4.017723        -0.230923
 H         2.049494         3.650116        -1.619133
 H         2.429774         1.295075         1.613114
