19
Iteration:  2832charge 0 multiplicity 1
 C        -0.034468        -0.078983        -0.221530
 C         1.395885         0.065387        -0.127220
 O         2.242206        -1.114296         0.213962
 C         2.490242        -0.313469        -1.066597
 C         3.412551         0.894003        -0.587797
 C         3.445584         2.101051        -1.582254
 C         2.849641         3.209359        -0.650863
 O         1.781594         2.615222        -0.036647
 C         2.162610         1.218870         0.279529
 H        -0.450589         0.300837         0.702006
 H        -0.419332         0.510465        -0.966886
 H        -0.465039        -1.090181        -0.237191
 H         2.549155        -1.002220        -1.971514
 H         4.375910         0.556994        -0.218784
 H         4.487410         2.317679        -2.055242
 H         2.676366         1.950839        -2.472571
 H         3.631249         3.285896         0.076001
 H         2.499688         4.157713        -0.944171
 H         2.298469         1.289562         1.356927
