19
Iteration:   329
 C        -0.049382         0.238488        -0.184694
 C         1.437891         0.170279        -0.217373
 O         1.958859        -1.166938        -0.018032
 C         2.509550        -0.254453        -1.147114
 C         3.577877         0.785377        -0.582233
 C         3.644500         2.210908        -1.381382
 C         2.264233         2.847473        -1.044187
 O         2.059535         2.602767         0.281314
 C         2.407301         1.201608         0.528160
 H        -0.263941         0.243004         0.901906
 H        -0.454319         1.201896        -0.591979
 H        -0.473524        -0.654432        -0.680162
 H         2.460889        -1.067743        -2.030354
 H         4.526917         0.520005        -0.366799
 H         4.562384         2.555756        -0.868953
 H         3.726474         1.841931        -2.353377
 H         2.318681         3.953389        -1.292406
 H         1.628638         2.231401        -1.619172
 H         2.403687         1.252807         1.664319
