19
Iteration:  3293
 C        -0.155892        -0.177715        -0.309950
 C         1.360382         0.117531        -0.065154
 O         2.144223        -1.033563         0.084139
 C         2.488561        -0.211443        -1.069017
 C         3.412957         0.878395        -0.618753
 C         3.635336         2.082225        -1.492108
 C         2.454220         3.021152        -1.061544
 O         2.080109         2.631035         0.281662
 C         2.361151         1.318301         0.529825
 H        -0.761643        -0.523873         0.591461
 H        -0.574141         0.816059        -0.767504
 H        -0.348733        -0.826618        -1.144782
 H         2.567184        -0.737752        -2.002913
 H         4.250060         0.413705        -0.063972
 H         4.527993         2.561534        -1.281050
 H         3.528887         1.796280        -2.526143
 H         2.768852         4.061863        -0.813937
 H         1.588070         2.910028        -1.797515
 H         2.423703         1.081402         1.631747
