19
Iteration:  1132charge 0 multiplicity 1
 C        -0.072155         0.045650        -0.298902
 C         1.421104         0.085901        -0.067404
 O         2.088460        -1.197852         0.060675
 C         2.426687        -0.199872        -1.092998
 C         3.488871         0.850431        -0.571464
 C         3.625309         2.151537        -1.364924
 C         2.398798         3.030370        -1.144500
 O         2.008192         2.598559         0.221877
 C         2.376570         1.229650         0.561035
 H        -0.772657         0.064416         0.579630
 H        -0.372294         0.876158        -0.946357
 H        -0.222049        -0.975603        -0.751560
 H         2.407849        -0.578901        -2.094050
 H         4.477221         0.505512        -0.210218
 H         4.464223         2.746802        -0.996239
 H         3.787634         1.944762        -2.386806
 H         2.682385         4.095872        -1.068914
 H         1.672491         2.863506        -1.889504
 H         2.579628         1.164653         1.629322
