19
Iteration:  4238
 C         0.073648         0.218251        -0.172119
 C         1.501419         0.140970        -0.075471
 O         2.144693        -1.111375        -0.055466
 C         2.391225        -0.211229        -1.155573
 C         3.464508         0.819407        -0.571624
 C         3.661479         2.184187        -1.308844
 C         2.419247         2.897563        -1.082330
 O         1.822013         2.454642         0.190475
 C         2.334771         1.151421         0.555196
 H        -0.408203        -0.098457         0.776530
 H        -0.293761         1.200498        -0.593898
 H        -0.073567        -0.478890        -0.948993
 H         2.165754        -0.503811        -2.242420
 H         4.457564         0.352434        -0.352518
 H         4.434011         2.877040        -0.872824
 H         3.896307         2.119404        -2.364454
 H         2.329903         4.021715        -0.964623
 H         1.602495         2.833962        -1.854272
 H         2.498437         1.212776         1.618198
