19
Iteration:   575charge 0 multiplicity 1
 C        -0.119573         0.227779        -0.172630
 C         1.382317         0.199882        -0.148056
 O         2.075950        -1.044840         0.077986
 C         2.540374        -0.287568        -1.159117
 C         3.485800         0.782777        -0.550882
 C         3.608749         2.136294        -1.388806
 C         2.386450         2.917723        -1.065599
 O         2.016462         2.482876         0.231612
 C         2.401727         1.186021         0.455102
 H        -0.536304        -0.541606         0.536479
 H        -0.547696         1.250190        -0.033635
 H        -0.356139        -0.154392        -1.192584
 H         2.488926        -0.848386        -2.119970
 H         4.532792         0.588427        -0.196256
 H         4.497311         2.731117        -1.108932
 H         3.805139         1.927039        -2.480741
 H         2.551392         4.001193        -1.086137
 H         1.503932         2.562201        -1.788249
 H         2.586205         0.965375         1.511754
