19
Iteration:  3230charge 0 multiplicity 1
 C        -0.151754         0.101468        -0.203905
 C         1.369502         0.165145        -0.234756
 O         2.206419        -1.119880         0.125076
 C         2.564036        -0.254512        -1.064407
 C         3.495868         0.866122        -0.548707
 C         3.627774         2.094204        -1.409060
 C         2.334449         3.018574        -1.053660
 O         1.965002         2.495814         0.234664
 C         2.364747         1.200903         0.427877
 H        -0.520668         0.131736         0.821532
 H        -0.608924         0.997609        -0.774935
 H        -0.527745        -0.790466        -0.698581
 H         2.745891        -0.610897        -2.077232
 H         4.423620         0.545555        -0.162470
 H         4.578598         2.622053        -1.351799
 H         3.559884         1.997712        -2.566731
 H         2.775163         3.999527        -0.967340
 H         1.516197         3.079295        -1.810854
 H         2.297248         1.149283         1.508987
