19
Iteration:  1001charge 0 multiplicity 1
 C        -0.153581         0.103594        -0.273362
 C         1.414375         0.151398        -0.153663
 O         2.124463        -1.030379         0.138596
 C         2.470250        -0.196252        -1.077583
 C         3.532953         0.853954        -0.625923
 C         3.702294         2.132819        -1.345354
 C         2.352432         2.843735        -1.106497
 O         1.953556         2.515175         0.264982
 C         2.362434         1.219116         0.452816
 H        -0.393978        -0.511503         0.546222
 H        -0.432585         1.066933         0.012167
 H        -0.518884        -0.081454        -1.275971
 H         2.249155        -0.833688        -1.991650
 H         4.500033         0.321597        -0.473175
 H         4.483823         2.816889        -0.940181
 H         4.007916         1.985665        -2.373538
 H         2.602860         3.939056        -1.228447
 H         1.634065         2.625875        -2.001002
 H         2.677473         1.059480         1.462091
