19
Iteration:   537charge 0 multiplicity 1
 C        -0.107381         0.301837        -0.066122
 C         1.468348         0.150152        -0.201210
 O         2.132358        -1.146406        -0.081671
 C         2.511994        -0.339327        -1.165162
 C         3.480012         0.851876        -0.477689
 C         3.654738         2.098219        -1.319087
 C         2.346180         2.850586        -1.110806
 O         2.004879         2.630798         0.252813
 C         2.326238         1.174652         0.447280
 H        -0.511807        -0.146170         0.854885
 H        -0.525835         1.348758        -0.163148
 H        -0.588722        -0.209392        -0.927657
 H         2.487409        -0.755255        -2.174241
 H         4.318907         0.372842        -0.047417
 H         4.604839         2.605897        -1.048093
 H         3.633495         1.888508        -2.360610
 H         2.358339         3.956610        -1.273045
 H         1.586447         2.430913        -1.785704
 H         2.519060         1.145296         1.529726
