19
Iteration:  1871
 C        -0.017251         0.126848        -0.177043
 C         1.453545         0.186716        -0.131995
 O         2.142904        -1.064871         0.009644
 C         2.436902        -0.201236        -1.124561
 C         3.439462         0.798597        -0.590874
 C         3.794741         2.161450        -1.193062
 C         2.383971         2.816590        -1.177444
 O         1.838594         2.496001         0.174308
 C         2.324338         1.235404         0.480247
 H        -0.251816        -0.073574         0.869261
 H        -0.386915         1.087534        -0.531378
 H        -0.384514        -0.669850        -0.821561
 H         2.103938        -0.326693        -2.159810
 H         4.330409         0.392784        -0.210326
 H         4.472083         2.812692        -0.525806
 H         4.280486         2.229703        -2.318386
 H         2.385842         3.935303        -1.190968
 H         1.628657         2.474871        -2.027648
 H         2.560485         1.187232         1.579373
