19
Iteration:   341charge 0 multiplicity 1
 C        -0.031364         0.226997        -0.151140
 C         1.434467         0.150796        -0.266597
 O         1.915488        -1.110853         0.034437
 C         2.572127        -0.300124        -1.103127
 C         3.493557         0.854329        -0.589303
 C         3.696268         2.176870        -1.407522
 C         2.323966         2.829796        -1.088465
 O         2.088696         2.573559         0.351062
 C         2.345054         1.193474         0.439235
 H        -0.249382         0.011803         0.902773
 H        -0.514988         1.185815        -0.450277
 H        -0.509888        -0.606537        -0.708456
 H         2.596928        -0.784676        -2.153678
 H         4.358980         0.477343        -0.183152
 H         4.487267         2.880883        -1.079915
 H         3.891073         2.189780        -2.442225
 H         2.039380         3.901096        -1.191781
 H         1.550207         2.390004        -1.679044
 H         2.510104         0.810714         1.454346
