19
Iteration:  1494
 C        -0.070589         0.213731        -0.258374
 C         1.436868         0.163875        -0.279209
 O         2.108702        -1.151008         0.052643
 C         2.667718        -0.261222        -1.000020
 C         3.511945         0.829797        -0.443036
 C         3.556563         2.035199        -1.417471
 C         2.270563         2.896912        -1.152168
 O         1.971721         2.589908         0.303933
 C         2.304365         1.243742         0.455043
 H        -0.301000         0.387490         0.795512
 H        -0.285306         1.073943        -0.902215
 H        -0.464978        -0.660633        -0.741818
 H         2.641749        -0.437120        -2.083796
 H         4.506166         0.695088         0.067195
 H         4.487533         2.588855        -1.160066
 H         3.808447         1.764032        -2.476471
 H         2.548667         3.943700        -1.228539
 H         1.355227         2.716480        -1.633879
 H         2.519579         0.882638         1.437564
