19
Iteration:  4169
 C        -0.109920        -0.057137        -0.311149
 C         1.411986         0.189522        -0.257104
 O         2.135867        -1.083440         0.047765
 C         2.615853        -0.236154        -1.048193
 C         3.441781         0.852837        -0.556845
 C         3.489342         2.027564        -1.505533
 C         2.517650         3.050509        -0.906428
 O         1.984406         2.616295         0.363527
 C         2.296352         1.270336         0.444195
 H        -0.388091        -0.353267         0.638633
 H        -0.886952         0.769912        -0.551607
 H        -0.321162        -0.832272        -1.104702
 H         2.763370        -0.619837        -2.004529
 H         4.412574         0.504237        -0.181037
 H         4.520064         2.356368        -1.589774
 H         3.161637         1.651177        -2.518628
 H         3.041137         4.021320        -0.942749
 H         1.628754         3.312041        -1.520611
 H         2.423674         0.946057         1.526005
