19
Iteration:   630charge 0 multiplicity 1
 C        -0.077198         0.093653        -0.248568
 C         1.427766         0.190805        -0.160593
 O         2.011479        -1.091741         0.000233
 C         2.484774        -0.183729        -1.067991
 C         3.542461         0.765768        -0.516662
 C         3.653137         2.054392        -1.424688
 C         2.321529         2.944765        -1.030524
 O         2.033391         2.583027         0.276185
 C         2.411769         1.255529         0.533127
 H        -0.673057        -0.018496         0.701181
 H        -0.558360         0.895760        -0.865376
 H        -0.438523        -0.747785        -0.906940
 H         2.401338        -0.492132        -2.137048
 H         4.596244         0.567639        -0.264518
 H         4.553060         2.696860        -1.418588
 H         3.619125         1.610044        -2.458926
 H         2.582213         3.984903        -1.193892
 H         1.496728         2.587124        -1.776930
 H         2.767312         1.049161         1.529927
