19
Iteration:  1899charge 0 multiplicity 1
 C        -0.096964         0.217991        -0.087304
 C         1.435975         0.083602        -0.142090
 O         2.150721        -1.070523        -0.053840
 C         2.541628        -0.239737        -1.114588
 C         3.467820         0.847878        -0.532599
 C         3.757141         2.193479        -1.199660
 C         2.409780         2.852321        -1.228793
 O         1.832687         2.489147         0.152929
 C         2.289135         1.177180         0.468674
 H        -0.378816        -0.235878         0.878103
 H        -0.178452         1.290719        -0.209538
 H        -0.709758        -0.374524        -0.884907
 H         2.578950        -0.811687        -2.108669
 H         4.514904         0.537235        -0.191634
 H         4.381471         2.908145        -0.717607
 H         4.033377         2.053442        -2.194855
 H         2.473228         3.934294        -1.097574
 H         1.673530         2.681797        -1.931934
 H         2.453296         1.165534         1.534511
