19
Iteration:  4993charge 0 multiplicity 1
 C        -0.048921         0.200109        -0.279255
 C         1.450612         0.152448        -0.172392
 O         2.059107        -1.104944        -0.001624
 C         2.519331        -0.295988        -1.130332
 C         3.509858         0.865585        -0.647471
 C         3.563852         2.212958        -1.358478
 C         2.243192         2.811570        -1.061008
 O         2.112194         2.556401         0.319227
 C         2.385906         1.174328         0.518532
 H        -0.241654         0.128244         0.860441
 H        -0.474831         1.085883        -0.590627
 H        -0.479648        -0.624772        -0.729331
 H         2.532037        -0.755346        -2.144937
 H         4.398696         0.566718        -0.102892
 H         4.224649         2.839774        -0.659531
 H         3.914273         2.281183        -2.352619
 H         2.264935         3.936596        -1.208186
 H         1.266022         2.395463        -1.542065
 H         2.607817         0.913637         1.580943
