19
Iteration:  2754
 C        -0.153874        -0.058926        -0.208811
 C         1.392262         0.110785        -0.070741
 O         2.257063        -1.136743         0.132266
 C         2.480257        -0.262511        -1.043847
 C         3.427913         0.867447        -0.559478
 C         3.622448         2.043060        -1.522038
 C         2.665560         3.218632        -0.833906
 O         1.814967         2.507318        -0.016078
 C         2.257885         1.236091         0.418634
 H        -0.674504        -0.450350         0.651787
 H        -0.579301         0.941562        -0.264341
 H        -0.391848        -0.478191        -1.163942
 H         2.340883        -0.658586        -2.022468
 H         4.365976         0.411791        -0.111068
 H         4.604412         2.672853        -1.626967
 H         3.211309         2.050968        -2.615757
 H         3.310391         3.933836        -0.240292
 H         2.120480         3.836063        -1.489458
 H         2.462574         1.391309         1.494277
