19
Iteration:   454
 C        -0.155417         0.194456        -0.088640
 C         1.299619         0.109865        -0.250611
 O         2.256573        -1.080968        -0.019050
 C         2.500341        -0.299675        -1.169550
 C         3.454810         0.793084        -0.531441
 C         3.649358         2.068583        -1.335278
 C         2.433615         2.960442        -1.052762
 O         2.067065         2.608791         0.274906
 C         2.218000         1.184623         0.414635
 H        -0.423532         0.325950         0.969035
 H        -0.338964         1.237747        -0.386832
 H        -0.879131        -0.475190        -0.543528
 H         2.610029        -0.771799        -2.102365
 H         4.375314         0.246582        -0.266108
 H         4.533510         2.571691        -0.930428
 H         3.848653         1.968045        -2.454694
 H         2.549610         4.029382        -1.227720
 H         1.714237         2.711307        -1.844472
 H         2.267748         1.017870         1.487187
