19
Iteration:  1698charge 0 multiplicity 1
 C        -0.038696         0.203163        -0.267386
 C         1.426334         0.198048        -0.219397
 O         2.142343        -1.107244        -0.046112
 C         2.634303        -0.255061        -1.019505
 C         3.490580         0.811260        -0.494482
 C         3.578004         2.067199        -1.346286
 C         2.224321         2.787933        -1.144603
 O         2.041318         2.621616         0.239998
 C         2.306888         1.239660         0.541126
 H        -0.461850         0.388385         0.842686
 H        -0.323323         1.329293        -0.589644
 H        -0.510506        -0.607020        -0.823329
 H         2.677107        -0.677729        -2.074691
 H         4.412111         0.461275        -0.017881
 H         4.374965         2.620728        -0.771986
 H         3.945551         1.820594        -2.307701
 H         2.061231         3.890643        -1.346168
 H         1.404809         2.198102        -1.643610
 H         2.260993         1.164345         1.663975
