19
Iteration:   789charge 0 multiplicity 1
 C        -0.118051         0.067158        -0.136247
 C         1.417954         0.221630        -0.181931
 O         2.107235        -0.980514         0.079253
 C         2.412790        -0.243352        -1.131487
 C         3.469811         0.777130        -0.573017
 C         3.728579         2.135812        -1.266145
 C         2.418002         2.873939        -1.135607
 O         1.946410         2.539003         0.182599
 C         2.409993         1.219901         0.391114
 H        -0.272733        -0.708105         0.512833
 H        -0.598842         1.001830         0.127732
 H        -0.516719        -0.044443        -1.107457
 H         2.414421        -0.757320        -2.089390
 H         4.357896         0.243370        -0.198193
 H         4.613265         2.553465        -0.843949
 H         3.892507         1.999340        -2.345502
 H         2.554101         3.995741        -1.000980
 H         1.501914         2.521520        -1.719879
 H         2.560766         1.082768         1.504079
