19
Iteration:  1051
 C        -0.147446         0.101440        -0.103619
 C         1.420799         0.070067        -0.101079
 O         2.044485        -1.237581        -0.158690
 C         2.595953        -0.122203        -1.088277
 C         3.524424         0.841239        -0.413037
 C         3.705695         2.100933        -1.379734
 C         2.333726         2.838157        -1.183988
 O         1.961140         2.659079         0.175890
 C         2.335529         1.317331         0.591985
 H        -0.435650        -0.233092         0.934759
 H        -0.334917         1.229807        -0.300657
 H        -0.604964        -0.502435        -0.945695
 H         2.760161        -0.370961        -2.184498
 H         4.490846         0.466748        -0.036009
 H         4.445777         2.763193        -0.932469
 H         4.058111         1.920960        -2.449017
 H         2.294199         3.937383        -1.342749
 H         1.766811         2.452413        -1.967796
 H         2.475717         1.269634         1.709859
