19
Iteration:    13
 C        -0.110671         0.222972        -0.148755
 C         1.408626         0.277821        -0.234755
 O         2.018288        -1.167096         0.002957
 C         2.523846        -0.365286        -1.093496
 C         3.506757         0.733267        -0.598913
 C         3.645883         2.128383        -1.445969
 C         2.438743         2.943438        -1.132069
 O         1.927085         2.659076         0.306833
 C         2.425719         1.167738         0.571927
 H        -0.171290        -0.192625         0.847985
 H        -0.739628         1.124657        -0.190827
 H        -0.529666        -0.550000        -0.793849
 H         2.663496        -0.995598        -2.053744
 H         4.599512         0.465583        -0.366396
 H         4.502006         2.605536        -0.881985
 H         3.934958         2.043797        -2.476493
 H         2.614517         4.050076        -1.217460
 H         1.625978         2.690047        -1.800835
 H         2.535796         1.033739         1.592399
