19
Iteration:  1201
 C        -0.054861         0.201808        -0.353845
 C         1.477076         0.153165        -0.188457
 O         2.076300        -1.193259         0.100889
 C         2.541717        -0.325951        -1.056902
 C         3.505569         0.890651        -0.563943
 C         3.596066         2.138499        -1.426715
 C         2.305008         2.886350        -1.074114
 O         1.965147         2.674786         0.335431
 C         2.369354         1.228118         0.489830
 H        -0.439413        -0.448624         0.430163
 H        -0.326759         1.254300        -0.166847
 H        -0.167672        -0.321791        -1.264808
 H         2.536513        -1.105236        -1.873195
 H         4.549279         0.653944        -0.289458
 H         4.546804         2.705904        -1.145335
 H         3.619011         1.833144        -2.506878
 H         2.357765         3.909612        -1.289263
 H         1.501800         2.412334        -1.665212
 H         2.512735         0.781265         1.518844
