19
Iteration:  2821
 C        -0.146547        -0.086848        -0.150586
 C         1.395078         0.000936        -0.193478
 O         2.242766        -1.074240         0.142261
 C         2.592934        -0.358187        -1.036551
 C         3.337379         0.839326        -0.618304
 C         3.431683         2.133099        -1.601952
 C         2.927820         3.219077        -0.631803
 O         1.748326         2.602206        -0.061092
 C         2.204311         1.303917         0.419020
 H        -0.564570         0.357956         0.732953
 H        -0.480747         0.440365        -0.967242
 H        -0.381727        -1.135758        -0.378675
 H         2.746436        -0.862331        -2.032918
 H         4.305325         0.640686        -0.149508
 H         4.510634         2.162408        -2.013833
 H         2.720504         1.858861        -2.481576
 H         3.589198         3.625866         0.098085
 H         2.609541         4.048668        -1.216443
 H         2.402262         1.246634         1.498970
