19
Iteration:  4271charge 0 multiplicity 1
 C        -0.194978         0.068798        -0.063336
 C         1.348739         0.098473        -0.182188
 O         2.184020        -1.107217        -0.208603
 C         2.504229        -0.135850        -1.198316
 C         3.519861         0.826564        -0.423690
 C         3.730297         2.245728        -1.308261
 C         2.353573         2.744178        -1.170926
 O         2.042021         2.654534         0.277204
 C         2.298567         1.214434         0.565510
 H        -0.634144        -0.128520         0.967706
 H        -0.726099         0.983486        -0.440022
 H        -0.522924        -0.711567        -0.685919
 H         2.387679        -0.658222        -2.200779
 H         4.512489         0.476547        -0.099134
 H         4.497396         2.853687        -0.788145
 H         4.049733         2.064771        -2.312404
 H         2.245291         3.846667        -1.395161
 H         1.635522         2.058697        -1.763836
 H         2.455603         1.159506         1.620335
