19
Iteration:  1443charge 0 multiplicity 1
 C        -0.014026         0.190085        -0.470167
 C         1.487445         0.234827        -0.052220
 O         2.101025        -1.040575         0.102683
 C         2.420281        -0.211234        -1.095318
 C         3.510132         0.736284        -0.513688
 C         3.574920         2.137729        -1.386874
 C         2.200257         2.786851        -1.105308
 O         1.992509         2.564707         0.257472
 C         2.525502         1.226102         0.564373
 H        -0.543782        -0.146627         0.464547
 H        -0.352843         1.183109        -0.846341
 H         0.104227        -0.675078        -1.209307
 H         2.379359        -0.846894        -1.906484
 H         4.413201         0.394885        -0.053705
 H         4.420592         2.754588        -1.159300
 H         3.814841         1.807479        -2.373593
 H         2.139778         3.888596        -1.189808
 H         1.247354         2.555044        -1.799678
 H         2.662582         0.941349         1.660994
