19
Iteration:  2838charge 0 multiplicity 1
 C        -0.021299        -0.068981        -0.240144
 C         1.422593         0.036359        -0.160123
 O         2.237391        -1.098504         0.233018
 C         2.449502        -0.319859        -1.049211
 C         3.412211         0.911581        -0.642109
 C         3.438931         2.065086        -1.568302
 C         2.884522         3.202121        -0.682927
 O         1.728153         2.554931        -0.005541
 C         2.214302         1.284348         0.290020
 H        -0.461148         0.288162         0.733258
 H        -0.484908         0.644993        -1.118046
 H        -0.332016        -1.114772        -0.280467
 H         2.324663        -0.958741        -1.867009
 H         4.388521         0.662373        -0.064798
 H         4.363711         2.496651        -1.867222
 H         2.712731         2.060117        -2.367438
 H         3.766333         3.328400         0.072256
 H         2.574867         4.259927        -1.031516
 H         2.317244         1.144760         1.408016
