19
Iteration:  2356
 C        -0.001530         0.272547        -0.243653
 C         1.432967         0.153240        -0.100097
 O         2.193686        -1.130257        -0.052809
 C         2.571718        -0.269619        -1.041339
 C         3.470597         0.727996        -0.485240
 C         3.599038         2.080907        -1.321623
 C         2.308632         2.907345        -1.153538
 O         1.880665         2.541281         0.222327
 C         2.300882         1.266270         0.523824
 H        -0.589134        -0.132528         0.609847
 H        -0.254322         1.321346        -0.336320
 H        -0.169120        -0.263933        -1.312687
 H         2.710675        -0.495442        -2.084032
 H         4.469405         0.515210        -0.062195
 H         4.556477         2.585384        -1.194584
 H         3.642419         1.746175        -2.444142
 H         2.454008         4.017639        -1.066650
 H         1.431278         2.752296        -1.886135
 H         2.602750         1.152413         1.559750
