19
Iteration:  4744
 C        -0.088343         0.018626        -0.321053
 C         1.441724         0.156019        -0.145737
 O         2.209129        -1.076996         0.089269
 C         2.548936        -0.288392        -1.018344
 C         3.433382         0.922893        -0.541751
 C         3.216188         1.953257        -1.569661
 C         2.819927         3.125475        -0.765989
 O         1.825772         2.515406         0.138224
 C         2.336631         1.228372         0.452843
 H        -0.568383        -0.460827         0.568814
 H        -0.472971         0.908920        -0.651300
 H        -0.020309        -0.707583        -1.079660
 H         2.555949        -0.473677        -2.036319
 H         4.471656         0.852232        -0.180271
 H         4.180630         2.305274        -2.114079
 H         2.505276         1.885209        -2.427462
 H         3.666409         3.720751        -0.323965
 H         2.406606         3.841389        -1.402144
 H         2.444283         1.159518         1.557921
