19
Iteration:  2261charge 0 multiplicity 1
 C        -0.169419         0.017327        -0.272008
 C         1.420415         0.192619        -0.155741
 O         2.093228        -1.124406        -0.073613
 C         2.577333        -0.138874        -1.048769
 C         3.515831         0.920333        -0.460737
 C         3.620930         2.021109        -1.408332
 C         2.391963         2.843248        -1.116843
 O         2.020848         2.595786         0.319283
 C         2.334314         1.303919         0.545123
 H        -0.715983        -0.087511         0.657179
 H        -0.747695         0.715151        -0.849437
 H        -0.169863        -0.959241        -0.836533
 H         2.424963        -0.154501        -2.180839
 H         4.349771         0.311677         0.007527
 H         4.581302         2.681149        -1.151432
 H         3.688796         1.861001        -2.532781
 H         2.560263         3.839169        -1.373302
 H         1.555503         2.476909        -1.671869
 H         2.588814         1.306537         1.645230
