19
Iteration:  1607
 C        -0.143059        -0.066880        -0.004601
 C         1.392509         0.088540        -0.201567
 O         2.179048        -1.065799        -0.044256
 C         2.497643        -0.190940        -1.106650
 C         3.450648         0.853355        -0.419230
 C         3.768964         2.056419        -1.321381
 C         2.621873         3.091762        -1.056292
 O         1.827913         2.592870         0.018234
 C         2.203462         1.260295         0.386107
 H        -0.266291        -0.469942         1.111390
 H        -0.908839         0.769282         0.116652
 H        -0.704649        -0.798613        -0.730857
 H         2.526499        -0.694741        -2.072946
 H         4.249618         0.498456         0.220230
 H         4.744868         2.566366        -1.292743
 H         3.727780         1.602398        -2.389177
 H         2.963734         4.078540        -0.791479
 H         1.953893         3.142791        -1.950140
 H         2.329882         1.211700         1.497421
