19
Iteration:  1987
 C        -0.070001         0.093794        -0.408708
 C         1.383693         0.100081        -0.178005
 O         2.177910        -1.083897         0.147812
 C         2.506750        -0.326350        -1.050048
 C         3.404365         0.874575        -0.591638
 C         3.622661         2.057801        -1.443775
 C         2.285523         2.915943        -1.033379
 O         2.095922         2.680539         0.334339
 C         2.325872         1.281632         0.462452
 H        -0.523815        -0.143059         0.564653
 H        -0.494220         0.974501        -0.845071
 H        -0.450435        -0.803120        -1.108352
 H         2.723975        -0.772246        -2.080412
 H         4.414814         0.469525        -0.211537
 H         4.379243         2.575636        -0.763667
 H         4.071424         2.156824        -2.380274
 H         2.359990         3.997185        -1.137775
 H         1.391762         2.532608        -1.661642
 H         2.477790         0.946982         1.466274
