19
Iteration:  4388charge 0 multiplicity 1
 C        -0.031892         0.125790        -0.207229
 C         1.445536         0.092500        -0.228282
 O         2.124102        -1.072768         0.000577
 C         2.584751        -0.223226        -1.111522
 C         3.512937         0.903145        -0.485725
 C         3.528150         2.087153        -1.488881
 C         2.491065         3.063627        -0.957682
 O         1.862341         2.483712         0.271033
 C         2.309812         1.154625         0.498138
 H        -0.447316        -0.034345         0.725608
 H        -0.444272         1.118214        -0.614402
 H        -0.376794        -0.642676        -0.878329
 H         2.611045        -0.710364        -2.132280
 H         4.414605         0.363053        -0.260619
 H         4.539547         2.545138        -1.711025
 H         3.087408         1.751345        -2.485350
 H         2.899084         3.960724        -0.528425
 H         1.737060         3.218391        -1.678015
 H         2.346067         0.856652         1.625971
