19
Iteration:  1119charge 0 multiplicity 1
 C        -0.140651         0.122716        -0.271324
 C         1.380896         0.156272        -0.072509
 O         2.232614        -1.206815         0.037406
 C         2.446366        -0.270067        -1.022855
 C         3.370565         0.832279        -0.545796
 C         3.693091         2.219679        -1.329539
 C         2.386997         2.971846        -1.132961
 O         1.989288         2.523448         0.188444
 C         2.399712         1.245545         0.440865
 H        -0.653497         0.337529         0.724593
 H        -0.489838         0.869028        -1.061581
 H        -0.466713        -0.883281        -0.794795
 H         2.187730        -0.599030        -2.106136
 H         4.292907         0.307676        -0.241241
 H         4.472330         2.631393        -0.736180
 H         4.140766         2.158884        -2.338717
 H         2.502974         4.107497        -1.003565
 H         1.574388         2.883075        -1.716158
 H         2.682986         1.220792         1.502466
