19
Iteration:  1485charge 0 multiplicity 1
 C        -0.096644         0.250046        -0.308437
 C         1.459059         0.115127        -0.262554
 O         2.147026        -1.119101         0.050425
 C         2.586849        -0.304271        -1.054011
 C         3.501874         0.850454        -0.363397
 C         3.584358         2.105477        -1.452951
 C         2.231774         2.854325        -1.115696
 O         2.060115         2.592703         0.314246
 C         2.334879         1.219291         0.477962
 H        -0.691807         0.386697         0.642743
 H        -0.363807         1.178673        -0.874415
 H        -0.562026        -0.672902        -0.784861
 H         2.834660        -0.736549        -1.967018
 H         4.446166         0.440585        -0.005861
 H         4.359442         2.804993        -1.191926
 H         3.651460         1.846415        -2.439678
 H         2.231414         3.867514        -1.463575
 H         1.338674         2.486329        -1.745418
 H         2.457583         1.178289         1.582561
