19
Iteration:  4540charge 0 multiplicity 1
 C         0.046882         0.268344        -0.105692
 C         1.486500         0.119423        -0.085339
 O         2.117325        -1.138953        -0.170140
 C         2.527868        -0.095117        -1.136938
 C         3.456932         0.830677        -0.461239
 C         3.683831         2.140357        -1.315524
 C         2.299778         2.824754        -1.176609
 O         1.802782         2.470309         0.198903
 C         2.405866         1.156531         0.559645
 H        -0.337416        -0.104468         0.785331
 H        -0.238727         1.406964        -0.146197
 H        -0.483012        -0.247886        -0.860369
 H         2.458683        -0.230505        -2.188984
 H         4.322432         0.257501        -0.065356
 H         4.495153         2.722530        -0.925720
 H         3.998431         1.801187        -2.308001
 H         2.324056         3.886202        -1.287340
 H         1.478329         2.571950        -1.850153
 H         2.599565         1.133198         1.672675
