19
Iteration:  4025charge 0 multiplicity 1
 C        -0.143580         0.253359        -0.100428
 C         1.442563         0.203365        -0.040345
 O         2.198013        -1.107162        -0.131307
 C         2.484132        -0.135189        -1.133409
 C         3.551012         0.818758        -0.507633
 C         3.736946         2.173212        -1.289975
 C         2.230537         2.735921        -1.155242
 O         1.874747         2.499393         0.208690
 C         2.447924         1.176195         0.498422
 H        -0.719108        -0.139648         0.720645
 H        -0.389171         1.244714        -0.304834
 H        -0.368046        -0.302054        -1.051581
 H         2.300249        -0.560388        -2.221021
 H         4.524031         0.407697        -0.218964
 H         4.399177         2.943174        -0.837030
 H         3.972610         1.915220        -2.347464
 H         2.099855         3.752390        -1.459483
 H         1.757341         2.024897        -1.780023
 H         2.501633         1.174934         1.636264
