19
Iteration:  1241charge 0 multiplicity 1
 C        -0.018835         0.313598        -0.304201
 C         1.411775         0.110421        -0.025768
 O         2.227215        -1.107949         0.001434
 C         2.475909        -0.150046        -1.066122
 C         3.467797         0.868690        -0.495811
 C         3.613471         2.114943        -1.393573
 C         2.291052         2.771147        -1.167590
 O         1.897578         2.520970         0.231967
 C         2.406342         1.114882         0.571127
 H        -0.690913        -0.125743         0.522918
 H        -0.229120         1.409469        -0.498883
 H        -0.321730        -0.133439        -1.312250
 H         2.556921        -0.491467        -2.077877
 H         4.438005         0.380527        -0.213371
 H         4.381324         2.800838        -1.049396
 H         3.805239         1.756260        -2.357263
 H         2.431577         3.899236        -1.280299
 H         1.446483         2.424544        -1.861310
 H         2.650547         1.187661         1.614761
