19
Iteration:  4478
 C        -0.092336         0.112895        -0.337407
 C         1.434571         0.157027        -0.202041
 O         2.165852        -1.102521         0.030855
 C         2.547370        -0.340257        -1.108317
 C         3.452134         0.773164        -0.626554
 C         3.581635         2.171997        -1.378508
 C         2.236190         2.908945        -0.970145
 O         2.091025         2.641746         0.367099
 C         2.371214         1.226399         0.473049
 H        -0.530569         0.025176         0.669242
 H        -0.426700         1.096113        -0.685458
 H        -0.416687        -0.634203        -1.037268
 H         2.360936        -0.710035        -2.069543
 H         4.386831         0.369594        -0.317384
 H         4.359344         2.777177        -0.829805
 H         3.735614         2.162082        -2.477291
 H         2.355408         3.985531        -1.155797
 H         1.469056         2.457659        -1.605318
 H         2.469488         1.165914         1.576971
