19
Iteration:  1075charge 0 multiplicity 1
 C        -0.046028         0.193833        -0.069276
 C         1.413967         0.195732        -0.270098
 O         2.121627        -1.049210        -0.044170
 C         2.530152        -0.192913        -1.121753
 C         3.509598         0.857458        -0.476249
 C         3.711023         2.072479        -1.277345
 C         2.330770         2.835361        -1.126438
 O         1.889654         2.511647         0.154366
 C         2.316448         1.174656         0.470287
 H         0.004220         0.188899         1.054326
 H        -0.599943         1.069006        -0.517561
 H        -0.465409        -0.814483        -0.479558
 H         2.665524        -0.585493        -2.217031
 H         4.330445         0.495205         0.175285
 H         4.445021         2.702849        -0.839842
 H         4.068668         1.899182        -2.314648
 H         2.333402         3.985644        -1.184248
 H         1.671268         2.544158        -1.904472
 H         2.405886         0.922293         1.538600
