19
Iteration:  2977
 C        -0.058337         0.071311        -0.226298
 C         1.415663         0.080496        -0.076243
 O         2.202628        -1.121445         0.088390
 C         2.473061        -0.284298        -1.031901
 C         3.419119         0.775246        -0.592708
 C         3.593486         2.139776        -1.491864
 C         2.556650         3.129375        -0.960816
 O         1.811903         2.508214         0.125593
 C         2.362877         1.246918         0.476299
 H        -0.755044        -0.158071         0.575388
 H        -0.279653         1.080469        -0.546224
 H        -0.314678        -0.629462        -0.972202
 H         2.577771        -0.758892        -2.004715
 H         4.345198         0.498582        -0.170661
 H         4.611678         2.545858        -1.494063
 H         3.273795         2.103258        -2.656179
 H         3.049055         3.998114        -0.540746
 H         1.857488         3.654419        -1.670273
 H         2.482514         1.009315         1.532263
