19
Iteration:   621
 C        -0.024752         0.092970        -0.310026
 C         1.394803         0.183546        -0.040593
 O         2.083254        -1.112047        -0.051453
 C         2.444785        -0.191429        -1.090537
 C         3.466244         0.769026        -0.455066
 C         3.587521         2.026505        -1.394137
 C         2.319894         2.970650        -1.115245
 O         2.087974         2.626857         0.263187
 C         2.416903         1.229492         0.521627
 H        -0.494218        -0.065438         0.640721
 H        -0.276877         1.043035        -0.651996
 H        -0.222206        -0.722312        -0.991432
 H         2.201903        -0.541999        -2.100278
 H         4.368043         0.225597        -0.072004
 H         4.564390         2.536649        -1.294214
 H         3.515795         1.758760        -2.424404
 H         2.573878         4.033826        -1.117403
 H         1.350795         2.769905        -1.724663
 H         2.651590         1.203382         1.590937
