19
Iteration:  3691charge 0 multiplicity 1
 C         0.050956         0.040858        -0.113562
 C         1.467786         0.003568         0.010710
 O         2.207158        -1.169175         0.093779
 C         2.400506        -0.240905        -1.117718
 C         3.393217         0.916580        -0.624164
 C         3.572961         2.153720        -1.533970
 C         2.775716         3.147743        -0.738189
 O         1.663853         2.481174        -0.120810
 C         2.251601         1.298267         0.437574
 H        -0.482550         0.026333         0.834664
 H        -0.334622         0.828375        -0.790846
 H        -0.449264        -0.797924        -0.614233
 H         2.239388        -0.864772        -1.988430
 H         4.139806         0.245755        -0.234625
 H         4.617366         2.427158        -1.554835
 H         3.121633         1.761781        -2.553751
 H         3.501724         3.599653        -0.042729
 H         2.409260         3.969346        -1.375100
 H         2.573456         1.416175         1.526430
