19
Iteration:  1859
 C        -0.061399         0.092956        -0.173207
 C         1.413735         0.127017        -0.052401
 O         2.159938        -1.089760        -0.079756
 C         2.413181        -0.180774        -1.128448
 C         3.491335         0.870401        -0.518134
 C         3.715961         2.188796        -1.250114
 C         2.413563         2.855868        -1.170744
 O         1.918934         2.564457         0.156319
 C         2.313139         1.214119         0.542673
 H        -0.674431        -0.006356         0.724439
 H        -0.421554         1.012408        -0.634023
 H        -0.353708        -0.810297        -0.835037
 H         2.328855        -0.793568        -2.090311
 H         4.356132         0.329733        -0.194652
 H         4.462276         2.730779        -0.613841
 H         4.213641         1.846893        -2.292278
 H         2.490076         3.946303        -1.303664
 H         1.682557         2.393084        -1.997301
 H         2.493758         1.184999         1.645527
