19
Iteration:  1734
 C         0.016515         0.212924        -0.404275
 C         1.451119         0.205961        -0.116744
 O         2.085331        -1.048264        -0.004694
 C         2.594076        -0.229817        -0.971664
 C         3.544835         0.821335        -0.487138
 C         3.565115         1.978879        -1.481783
 C         2.239188         2.883454        -1.047429
 O         1.952493         2.525019         0.288067
 C         2.373284         1.247071         0.567937
 H        -0.472424        -0.098470         0.548422
 H        -0.345941         1.199082        -0.795168
 H        -0.368604        -0.532519        -1.134635
 H         2.629067        -0.578866        -1.951148
 H         4.615525         0.641001        -0.140648
 H         4.591970         2.388828        -1.354827
 H         3.330056         1.708942        -2.470751
 H         2.215090         4.005744        -1.171626
 H         1.430810         2.466965        -1.755611
 H         2.595261         1.179450         1.624733
