19
Iteration:   642charge 0 multiplicity 1
 C        -0.173843         0.143905        -0.250316
 C         1.397792         0.229623        -0.202615
 O         2.012548        -1.066980         0.030342
 C         2.582831        -0.239158        -1.083691
 C         3.565175         0.887351        -0.587866
 C         3.633388         2.090017        -1.485694
 C         2.425637         2.831762        -1.059289
 O         1.991339         2.546929         0.343341
 C         2.400633         1.209139         0.526981
 H        -0.442802         0.180570         0.816220
 H        -0.660626         0.928900        -0.762172
 H        -0.305911        -0.890307        -0.583081
 H         2.591123        -0.768589        -2.057112
 H         4.461934         0.400496        -0.184919
 H         4.567572         2.576902        -1.153436
 H         3.625285         1.969193        -2.567865
 H         2.441816         3.905622        -1.003103
 H         1.512901         2.562036        -1.733856
 H         2.402454         1.073398         1.594384
