19
Iteration:   964
 C        -0.060453         0.180181        -0.245713
 C         1.419595         0.118628        -0.234454
 O         2.123453        -1.186142         0.032990
 C         2.611422        -0.325326        -1.045580
 C         3.504930         0.815947        -0.520960
 C         3.521555         2.033793        -1.398012
 C         2.366357         2.960487        -1.133907
 O         2.012247         2.681037         0.293948
 C         2.287169         1.254858         0.473963
 H        -0.487754        -0.206536         0.713008
 H        -0.284377         1.319915        -0.263861
 H        -0.748631        -0.316037        -0.951820
 H         2.713684        -0.702783        -2.055830
 H         4.517014         0.570128        -0.150998
 H         4.363236         2.590380        -1.080650
 H         3.680943         1.749993        -2.451802
 H         2.670970         4.052459        -0.978552
 H         1.426265         2.969917        -1.690832
 H         2.407358         1.032827         1.567640
