19
Iteration:   534
 C        -0.110337         0.310209        -0.073506
 C         1.439146         0.129638        -0.160604
 O         2.162817        -1.133784        -0.109326
 C         2.506923        -0.306907        -1.142733
 C         3.446051         0.884427        -0.502487
 C         3.659516         2.086962        -1.306197
 C         2.323592         2.834305        -1.114049
 O         2.031583         2.623739         0.238276
 C         2.322530         1.163245         0.476759
 H        -0.579363        -0.120352         0.782041
 H        -0.472028         1.251594        -0.273577
 H        -0.627534        -0.211242        -0.850432
 H         2.477305        -0.741577        -2.184177
 H         4.277061         0.327282         0.016669
 H         4.606048         2.635408        -1.162604
 H         3.685792         1.835758        -2.366480
 H         2.467209         3.899420        -1.218017
 H         1.726936         2.404534        -1.863477
 H         2.518049         1.103424         1.560586
