19
Iteration:  3754
 C        -0.021816         0.032052        -0.122530
 C         1.436208         0.093529        -0.152948
 O         2.196942        -1.128509         0.034288
 C         2.619310        -0.355084        -1.055494
 C         3.343549         0.858242        -0.554504
 C         3.507142         2.026570        -1.544603
 C         2.710184         3.152750        -0.856489
 O         1.775151         2.608518         0.087851
 C         2.194818         1.285170         0.408149
 H        -0.238593        -0.160687         0.897665
 H        -0.332333         1.038715        -0.354942
 H        -0.463332        -0.840339        -0.752516
 H         2.352872        -0.878065        -1.958930
 H         4.350901         0.568966        -0.236656
 H         4.540395         2.332253        -1.547328
 H         3.197267         1.781721        -2.611257
 H         3.420264         3.731357        -0.223439
 H         2.039286         3.843687        -1.455366
 H         2.334772         1.227579         1.453993
