19
Iteration:  4060charge 0 multiplicity 1
 C         0.033253         0.360334        -0.153469
 C         1.518955         0.189740        -0.177980
 O         2.140901        -1.211206        -0.138648
 C         2.605072        -0.207918        -1.142506
 C         3.561628         0.817214        -0.435755
 C         3.518688         2.052789        -1.293476
 C         2.178031         2.820487        -1.107242
 O         1.892633         2.560176         0.236422
 C         2.382212         1.197672         0.524529
 H        -0.356323         0.479744         0.772712
 H        -0.219436         1.304015        -0.723122
 H        -0.443713        -0.511176        -0.661528
 H         2.624850        -0.541747        -2.175092
 H         4.522919         0.517294         0.003382
 H         4.361788         2.660748        -1.063121
 H         3.716931         1.755842        -2.314258
 H         2.167850         3.827474        -1.413699
 H         1.266135         2.445981        -1.566921
 H         2.484591         1.153486         1.637133
