19
Iteration:  4974
 C        -0.123907         0.046639        -0.153250
 C         1.355918         0.153201        -0.265866
 O         2.123188        -1.103635         0.004313
 C         2.498550        -0.211806        -1.164744
 C         3.513899         0.809243        -0.533909
 C         3.635725         2.148282        -1.347347
 C         2.294671         2.912991        -1.069581
 O         2.083000         2.640907         0.354878
 C         2.388640         1.222398         0.439094
 H        -0.622321        -0.183198         0.887880
 H        -0.470606         1.100733        -0.473671
 H        -0.452917        -0.638552        -0.946917
 H         2.718656        -0.565582        -2.236266
 H         4.463075         0.263364        -0.344483
 H         4.537568         2.724173        -1.109027
 H         3.837993         1.927542        -2.402600
 H         2.090609         3.953027        -1.127386
 H         1.573704         2.459092        -1.733032
 H         2.501697         0.841985         1.521870
