19
Iteration:  2436
 C        -0.070585         0.107048        -0.177207
 C         1.363100         0.105107        -0.095433
 O         2.187888        -1.068088         0.028518
 C         2.431472        -0.246786        -1.111624
 C         3.435475         0.828867        -0.572802
 C         3.737040         2.176332        -1.325330
 C         2.439276         2.975910        -1.130747
 O         1.945668         2.558044         0.185866
 C         2.273590         1.187614         0.479845
 H        -0.707467        -0.074219         0.750790
 H        -0.442625         0.962720        -0.850089
 H        -0.220984        -0.870154        -0.776606
 H         2.539545        -0.744444        -2.146310
 H         4.404668         0.510505        -0.138700
 H         4.571191         2.548175        -0.630645
 H         4.138506         2.067246        -2.339978
 H         2.436967         4.065310        -1.327332
 H         1.582656         2.488401        -1.715753
 H         2.481309         1.046824         1.575525
