19
Iteration:  3081
 C        -0.034559        -0.019320        -0.234768
 C         1.423547         0.136243        -0.116212
 O         2.209844        -1.089661         0.118695
 C         2.424816        -0.252712        -1.079224
 C         3.337387         0.809219        -0.621557
 C         3.632107         2.067498        -1.412864
 C         2.528031         3.096077        -0.979787
 O         1.850317         2.584410         0.128086
 C         2.351095         1.270088         0.473741
 H        -0.360504        -0.278706         0.812013
 H        -0.543140         0.899813        -0.517347
 H        -0.414619        -0.753380        -1.058473
 H         2.413242        -0.816552        -2.031822
 H         4.356167         0.325135        -0.391520
 H         4.587491         2.518550        -1.024197
 H         3.691915         2.045735        -2.417522
 H         3.023286         4.046262        -0.706380
 H         1.690835         3.235998        -1.738334
 H         2.871884         1.023187         1.405590
