19
Iteration:  1848
 C        -0.176029         0.069458        -0.177388
 C         1.397714         0.077135        -0.069706
 O         2.182363        -1.158673        -0.073464
 C         2.464109        -0.113832        -1.122386
 C         3.442846         0.838078        -0.433315
 C         3.741028         2.092085        -1.271646
 C         2.380736         2.914394        -1.170942
 O         1.983160         2.630045         0.152091
 C         2.365571         1.235767         0.532921
 H        -0.728700        -0.039456         0.753699
 H        -0.454777         0.911120        -0.784481
 H        -0.346242        -0.842478        -0.849996
 H         2.595463        -0.411974        -2.227468
 H         4.336327         0.396620        -0.033977
 H         4.581599         2.728995        -0.900288
 H         3.866516         2.074397        -2.458587
 H         2.283702         4.004888        -1.257700
 H         1.588113         2.467130        -1.955732
 H         2.475605         1.256457         1.638859
