19
Iteration:  4139charge 0 multiplicity 1
 C        -0.088641        -0.148290        -0.456753
 C         1.401304         0.098782        -0.142821
 O         2.123001        -1.099307         0.145875
 C         2.473788        -0.243670        -1.064343
 C         3.399610         0.823753        -0.578853
 C         3.523031         2.144473        -1.502831
 C         2.455448         3.130075        -0.951674
 O         2.160291         2.671982         0.389959
 C         2.324236         1.253944         0.420718
 H        -0.660508        -0.314268         0.449692
 H        -0.538796         0.728704        -1.023265
 H        -0.222679        -1.016206        -1.046162
 H         2.402224        -0.737385        -2.019687
 H         4.358778         0.429781        -0.184871
 H         4.547800         2.443555        -1.629408
 H         3.111675         1.774820        -2.426016
 H         2.887759         4.153763        -0.832914
 H         1.468390         3.042529        -1.361197
 H         2.489313         1.076058         1.462542
