19
Iteration:  4308
 C        -0.110397        -0.017857        -0.115130
 C         1.450335         0.233795        -0.138232
 O         2.141875        -1.009129        -0.134432
 C         2.483622        -0.193825        -1.215945
 C         3.519579         0.789641        -0.511381
 C         3.631600         2.048670        -1.274595
 C         2.394258         2.929956        -1.096154
 O         1.903628         2.627616         0.240145
 C         2.381331         1.203168         0.527326
 H        -0.262105        -0.385361         0.893267
 H        -0.669698         0.816045        -0.320873
 H        -0.393830        -0.822906        -0.860534
 H         2.514163        -0.638630        -2.166617
 H         4.335522         0.238316        -0.034451
 H         4.401646         2.615251        -0.790136
 H         3.862043         2.027323        -2.352309
 H         2.644423         3.949232        -1.287664
 H         1.662233         2.832607        -1.876341
 H         2.407358         1.003007         1.620464
