19
Iteration:  3760charge 0 multiplicity 1
 C        -0.024066        -0.018420        -0.132829
 C         1.396441         0.107044        -0.158079
 O         2.208020        -1.140633         0.036275
 C         2.567818        -0.366804        -1.071715
 C         3.341934         0.839428        -0.558088
 C         3.507599         2.026115        -1.511291
 C         2.692594         3.154060        -0.899831
 O         1.802600         2.654011         0.100524
 C         2.239099         1.293576         0.440081
 H        -0.381156        -0.308514         0.940244
 H        -0.446253         0.959177        -0.444188
 H        -0.446699        -0.751372        -0.796275
 H         2.653440        -0.904395        -2.051020
 H         4.389674         0.662049        -0.221391
 H         4.538542         2.455312        -1.626705
 H         3.101050         1.796733        -2.464717
 H         3.459418         3.677747        -0.306519
 H         2.198527         3.921003        -1.473130
 H         2.333427         1.301663         1.581084
