19
Iteration:  1365
 C        -0.117879         0.011015        -0.147805
 C         1.437332         0.118330        -0.175708
 O         2.082965        -1.073465         0.042022
 C         2.516571        -0.252046        -1.047106
 C         3.462609         0.881767        -0.575005
 C         3.801637         2.100368        -1.410283
 C         2.496750         3.035924        -1.077119
 O         1.806419         2.545293         0.154559
 C         2.341655         1.287064         0.494783
 H        -0.402195        -0.369801         0.909854
 H        -0.576203         1.062174        -0.339099
 H        -0.403053        -0.831467        -0.837419
 H         2.376846        -0.751241        -2.011875
 H         4.354757         0.306243        -0.258647
 H         4.737199         2.601143        -1.145902
 H         3.745003         1.678119        -2.381696
 H         2.685989         4.052062        -0.810685
 H         1.706872         2.955224        -1.950129
 H         2.510325         1.009762         1.568033
