19
Iteration:  4633charge 0 multiplicity 1
 C        -0.120186        -0.072737        -0.196518
 C         1.369831         0.010331        -0.117084
 O         2.152127        -1.182483        -0.074265
 C         2.464171        -0.199759        -1.083730
 C         3.455443         0.868230        -0.515001
 C         3.545348         2.066379        -1.417466
 C         2.572283         3.080602        -0.999329
 O         1.997158         2.685975         0.212620
 C         2.322845         1.290665         0.520233
 H        -0.667631        -0.191777         0.826548
 H        -0.565940         0.703062        -0.703103
 H        -0.493974        -0.962545        -0.764524
 H         2.549634        -0.549387        -2.163997
 H         4.378306         0.548283        -0.033260
 H         4.556679         2.654698        -1.642811
 H         3.270781         1.871654        -2.518266
 H         3.059382         4.102567        -0.763333
 H         1.866163         3.395997        -1.758077
 H         2.576315         1.289959         1.646172
