19
Iteration:  2822
 C        -0.138166        -0.085647        -0.154544
 C         1.394977         0.005076        -0.186489
 O         2.242475        -1.077259         0.148517
 C         2.586595        -0.355007        -1.039576
 C         3.344676         0.838708        -0.612769
 C         3.431872         2.137288        -1.608999
 C         2.917919         3.212754        -0.627232
 O         1.754697         2.608282        -0.061629
 C         2.197414         1.294149         0.408866
 H        -0.554624         0.374259         0.731417
 H        -0.469146         0.433514        -0.957035
 H        -0.387074        -1.140764        -0.386988
 H         2.751557        -0.867913        -2.045070
 H         4.286151         0.627641        -0.177244
 H         4.479402         2.147865        -2.024164
 H         2.763843         1.849797        -2.448181
 H         3.595502         3.611451         0.120508
 H         2.586374         4.089105        -1.210310
 H         2.396212         1.257549         1.480554
