19
Iteration:  3597
 C        -0.078312        -0.080435        -0.259831
 C         1.401238         0.018263        -0.048215
 O         2.233895        -1.067978         0.184621
 C         2.483224        -0.218032        -0.981962
 C         3.368927         0.883566        -0.657976
 C         3.384278         2.025400        -1.647189
 C         2.889977         3.207046        -0.730411
 O         1.768336         2.530380        -0.021462
 C         2.259854         1.259574         0.469067
 H        -0.647843        -0.419093         0.639912
 H        -0.325364         0.909340        -0.708372
 H        -0.230861        -0.673631        -1.090873
 H         2.571057        -0.780469        -1.961499
 H         4.427814         0.719611        -0.271290
 H         4.408401         2.434238        -1.958090
 H         2.747582         1.837591        -2.457052
 H         3.687633         3.721666        -0.090403
 H         2.366416         3.995133        -1.272300
 H         2.674031         1.154626         1.469053
