19
Iteration:  4669charge 0 multiplicity 1
 C        -0.067559         0.106823        -0.295504
 C         1.468010         0.111351        -0.184330
 O         2.180591        -1.053672         0.141846
 C         2.539060        -0.296193        -1.130765
 C         3.460419         0.810792        -0.631175
 C         3.427502         2.086219        -1.500358
 C         2.533625         3.050414        -0.822962
 O         1.855219         2.540911         0.238303
 C         2.348872         1.198776         0.436777
 H        -0.454109         0.165016         0.748492
 H        -0.249966         1.157461        -0.844467
 H        -0.338827        -0.773009        -0.838637
 H         2.490941        -0.962594        -1.926143
 H         4.449985         0.477836        -0.212222
 H         4.509248         2.414587        -1.580933
 H         2.989261         1.855180        -2.509395
 H         3.172123         3.853952        -0.479902
 H         1.854429         3.494923        -1.691158
 H         2.713961         1.145548         1.427895
