19
Iteration:  4545charge 0 multiplicity 1
 C         0.027995         0.243505        -0.103527
 C         1.454387         0.110978        -0.097315
 O         2.133060        -1.153639        -0.155001
 C         2.490748        -0.130543        -1.169527
 C         3.494565         0.809187        -0.488865
 C         3.686073         2.136640        -1.277647
 C         2.283667         2.864482        -1.148461
 O         1.874114         2.491031         0.140508
 C         2.368704         1.210332         0.598960
 H        -0.343265        -0.096332         0.961100
 H        -0.125821         1.263289        -0.060068
 H        -0.499777        -0.276192        -0.968025
 H         2.363108        -0.276237        -2.277134
 H         4.387143         0.386576        -0.039814
 H         4.457899         2.805347        -0.707437
 H         3.872218         1.916157        -2.365122
 H         2.202048         4.012387        -1.177962
 H         1.598705         2.345451        -1.953007
 H         2.532854         1.025057         1.679162
