19
Iteration:   406charge 0 multiplicity 1
 C        -0.096688         0.132848        -0.264391
 C         1.393238         0.158956         0.022439
 O         2.035885        -1.186971        -0.036568
 C         2.465141        -0.216587        -1.059758
 C         3.500493         0.794794        -0.554508
 C         3.603164         2.100811        -1.445318
 C         2.408123         3.041146        -1.058405
 O         2.015428         2.515063         0.172892
 C         2.462285         1.248703         0.594752
 H        -0.739545        -0.375111         0.478497
 H        -0.693042         1.054209        -0.365584
 H        -0.201594        -0.507773        -1.171118
 H         2.376513        -0.426391        -2.191536
 H         4.411062         0.399222        -0.266304
 H         4.626982         2.519295        -1.268366
 H         3.566085         1.799766        -2.454579
 H         2.796415         4.077179        -0.966770
 H         1.568400         3.113600        -1.764862
 H         2.871909         1.407401         1.607400
