19
Iteration:  3575charge 0 multiplicity 1
 C        -0.002115         0.110126        -0.292279
 C         1.507641         0.134486        -0.116849
 O         2.233684        -1.080394         0.185599
 C         2.529818        -0.426398        -0.996394
 C         3.431134         0.845099        -0.634618
 C         3.357399         2.049522        -1.614372
 C         2.710028         3.144859        -0.702640
 O         1.696836         2.497026         0.004103
 C         2.313849         1.272140         0.443982
 H        -0.433423        -0.056908         0.707694
 H        -0.299770         1.009974        -0.861697
 H        -0.180882        -0.654019        -0.947918
 H         2.146005        -0.786703        -1.986808
 H         4.454806         0.507825        -0.263690
 H         4.348399         2.483865        -2.045769
 H         2.700695         1.681370        -2.348335
 H         3.584768         3.476870        -0.034798
 H         2.329700         4.072567        -1.141833
 H         2.515683         1.480183         1.476029
