19
Iteration:  4223charge 0 multiplicity 1
 C        -0.045553         0.213224        -0.218851
 C         1.461805         0.084920        -0.062571
 O         2.162548        -1.156844        -0.002573
 C         2.480333        -0.244798        -1.144074
 C         3.522001         0.862785        -0.607348
 C         3.710854         2.188005        -1.369290
 C         2.349775         3.016065        -0.964815
 O         1.757173         2.425428         0.189850
 C         2.421915         1.203632         0.498541
 H        -0.663253         0.072053         0.656331
 H        -0.210691         1.358416        -0.404285
 H        -0.545551        -0.380175        -1.100042
 H         2.264555        -0.681842        -2.087389
 H         4.435958         0.388400        -0.225096
 H         4.744419         2.576031        -1.214994
 H         3.607214         1.906954        -2.480411
 H         2.700357         4.038829        -0.815136
 H         1.687571         2.899508        -1.889413
 H         2.680786         1.075166         1.618366
