19
Iteration:   322charge 0 multiplicity 1
 C        -0.094221         0.258267        -0.197288
 C         1.452559         0.200906        -0.166691
 O         2.044155        -1.162005        -0.050013
 C         2.466528        -0.252989        -1.145405
 C         3.559240         0.754089        -0.557544
 C         3.586151         2.131013        -1.333516
 C         2.273535         2.861511        -1.073772
 O         2.037790         2.587671         0.279543
 C         2.435122         1.211437         0.561740
 H        -0.376815         0.320542         0.844316
 H        -0.306188         1.163615        -0.775566
 H        -0.502497        -0.621610        -0.707468
 H         2.464379        -0.707204        -2.102758
 H         4.632904         0.396886        -0.303537
 H         4.507945         2.659375        -0.982677
 H         3.778168         1.938812        -2.430948
 H         2.452500         3.879262        -1.423682
 H         1.496666         2.413236        -1.801142
 H         2.627209         1.218779         1.595858
