19
Iteration:  1665
 C        -0.073861         0.126410        -0.229995
 C         1.405745         0.157511        -0.049429
 O         2.149398        -1.075941         0.058934
 C         2.477326        -0.155133        -1.047012
 C         3.467625         0.836894        -0.664152
 C         3.771360         2.180234        -1.342354
 C         2.419403         2.908362        -1.146515
 O         1.859597         2.464224         0.154519
 C         2.323756         1.180493         0.549967
 H        -0.554325         0.038406         0.815673
 H        -0.316064         1.112470        -0.747191
 H        -0.463364        -0.698213        -0.839193
 H         2.333124        -0.700088        -2.036919
 H         4.373990         0.328775        -0.325268
 H         4.475900         2.694437        -0.680226
 H         4.186063         2.045867        -2.281821
 H         2.300225         4.016885        -1.206345
 H         1.830995         2.467532        -1.994364
 H         2.425871         1.108518         1.665977
