19
Iteration:  4153
 C        -0.094073        -0.139044        -0.390220
 C         1.313175         0.145787        -0.219942
 O         2.124776        -0.998084         0.054093
 C         2.500550        -0.326705        -1.062208
 C         3.478933         0.895157        -0.473765
 C         3.444827         2.077732        -1.543894
 C         2.481907         3.142740        -0.955397
 O         2.154907         2.573929         0.330583
 C         2.322958         1.208774         0.555143
 H        -0.636178        -0.423681         0.659875
 H        -0.555102         0.732652        -0.754220
 H        -0.160769        -0.997790        -1.080413
 H         2.490036        -0.868567        -2.108631
 H         4.460132         0.654103        -0.015938
 H         4.397256         2.680798        -1.622232
 H         3.294507         1.813997        -2.582464
 H         2.856615         4.235808        -0.764492
 H         1.757261         3.378448        -1.772165
 H         2.480078         0.976205         1.609150
