19
Iteration:  3323charge 0 multiplicity 1
 C        -0.022128         0.076672        -0.231389
 C         1.426877         0.196220        -0.196782
 O         2.160536        -1.059552         0.058101
 C         2.544979        -0.338732        -1.093551
 C         3.422895         0.821603        -0.625193
 C         3.607955         2.126570        -1.360519
 C         2.344359         2.911589        -1.108599
 O         1.995900         2.584643         0.266098
 C         2.320676         1.269696         0.511259
 H        -0.490970        -0.129133         0.770038
 H        -0.448140         1.075176        -0.424280
 H        -0.512029        -0.591623        -0.894844
 H         2.458894        -0.846508        -2.030234
 H         4.345890         0.417286        -0.049220
 H         4.532977         2.694227        -1.030061
 H         3.841357         1.906498        -2.403492
 H         2.398888         4.021991        -1.028995
 H         1.549650         2.770231        -1.811670
 H         2.312161         0.964301         1.603846
