19
Iteration:  4746charge 0 multiplicity 1
 C        -0.092165        -0.003331        -0.299194
 C         1.432610         0.146932        -0.149290
 O         2.193402        -1.071611         0.099065
 C         2.560955        -0.282065        -1.019074
 C         3.435578         0.924733        -0.554368
 C         3.217005         1.965174        -1.570900
 C         2.824794         3.140637        -0.766593
 O         1.836305         2.514818         0.142143
 C         2.319243         1.217088         0.448800
 H        -0.523280        -0.490559         0.515812
 H        -0.478322         0.980768        -0.708626
 H         0.019614        -0.724798        -1.080169
 H         2.528412        -0.527242        -2.071489
 H         4.490136         0.901383        -0.168973
 H         4.198061         2.273911        -2.042890
 H         2.554135         1.869824        -2.469500
 H         3.653174         3.643763        -0.308026
 H         2.439071         3.954729        -1.450794
 H         2.494825         1.157652         1.489545
