19
Iteration:  3471
 C        -0.131978        -0.141250        -0.290661
 C         1.383085         0.077600        -0.100016
 O         2.169225        -1.096305         0.139610
 C         2.467016        -0.257791        -1.146133
 C         3.419973         0.821539        -0.598516
 C         3.621437         2.066767        -1.519287
 C         2.580949         3.122515        -0.979063
 O         1.941514         2.703054         0.252178
 C         2.321612         1.291908         0.491155
 H        -0.601905        -0.423843         0.665638
 H        -0.620242         0.833160        -0.386485
 H        -0.489890        -0.983020        -1.018869
 H         2.449406        -0.919608        -2.018404
 H         4.285852         0.571057        -0.047165
 H         4.588240         2.331160        -1.509953
 H         3.302952         1.885906        -2.553960
 H         3.045315         4.083858        -0.744021
 H         1.846483         3.211214        -1.809292
 H         2.711443         1.377434         1.500532
