19
Iteration:  1423charge 0 multiplicity 1
 C        -0.050618         0.165739        -0.342866
 C         1.406363         0.126189        -0.088730
 O         2.107966        -1.145614         0.054216
 C         2.584529        -0.235892        -1.002757
 C         3.500593         0.875457        -0.500680
 C         3.543690         2.067052        -1.468980
 C         2.367631         2.870837        -1.127638
 O         1.979266         2.570241         0.281670
 C         2.368458         1.273808         0.516157
 H        -0.591082        -0.158669         0.544395
 H        -0.271083         1.203486        -0.603112
 H        -0.213092        -0.442971        -1.272276
 H         2.373884        -0.525185        -2.016583
 H         4.437041         0.439186        -0.242090
 H         4.389667         2.691038        -1.124740
 H         3.788643         2.011383        -2.597864
 H         2.371116         3.983867        -1.146277
 H         1.493883         2.585020        -1.738616
 H         2.414102         1.141808         1.648857
