19
Iteration:  2204charge 0 multiplicity 1
 C        -0.160525         0.264776        -0.139121
 C         1.418414         0.076981        -0.162644
 O         2.227844        -1.126095         0.032973
 C         2.485781        -0.358110        -1.188042
 C         3.527059         0.818953        -0.577955
 C         3.704424         2.210326        -1.265394
 C         2.380347         2.999436        -1.124445
 O         1.819067         2.470620         0.169078
 C         2.378132         1.226126         0.504588
 H        -0.533482         0.202827         0.892738
 H        -0.166092         1.243191        -0.589387
 H        -0.768671        -0.448363        -0.851104
 H         2.525316        -0.901177        -2.122571
 H         4.404663         0.175214        -0.227715
 H         4.540919         2.724348        -0.610779
 H         4.044355         2.206195        -2.289209
 H         2.405928         4.090294        -1.139269
 H         1.682525         2.633927        -1.845362
 H         2.542917         1.138412         1.614266
