19
Iteration:  1783charge 0 multiplicity 1
 C        -0.135833         0.173190        -0.346173
 C         1.417772         0.120928        -0.195593
 O         2.178341        -1.115146         0.193104
 C         2.553995        -0.374456        -1.041878
 C         3.473432         0.835813        -0.593263
 C         3.605905         2.221586        -1.483267
 C         2.386726         2.957935        -1.057046
 O         1.994689         2.598747         0.310127
 C         2.289022         1.178669         0.473582
 H        -0.760481        -0.262251         0.386380
 H        -0.394346         1.091279        -0.783967
 H        -0.363133        -0.502352        -1.129971
 H         2.789786        -0.992521        -1.958064
 H         4.427744         0.588369        -0.141690
 H         4.539715         2.597489        -1.075556
 H         3.600318         1.895772        -2.597709
 H         2.632673         4.021089        -1.064406
 H         1.509595         2.900156        -1.697486
 H         2.393951         1.007642         1.576447
