19
Iteration:  2615charge 0 multiplicity 1
 C        -0.133452        -0.105191        -0.241309
 C         1.388162         0.073766        -0.201101
 O         2.243937        -1.121591         0.236423
 C         2.554987        -0.273885        -1.043140
 C         3.390476         0.915780        -0.581759
 C         3.440472         2.029528        -1.587865
 C         2.901920         3.258588        -0.692794
 O         1.753469         2.569627         0.011612
 C         2.190900         1.272656         0.321529
 H        -0.578378         0.185571         0.779392
 H        -0.769905         0.400649        -0.980356
 H        -0.182029        -1.204829        -0.489017
 H         2.606702        -1.005184        -1.843608
 H         4.336449         0.539141        -0.264140
 H         4.425660         2.345389        -1.904668
 H         2.901275         1.956599        -2.475527
 H         3.556868         3.526997         0.073199
 H         2.676797         4.196103        -1.311055
 H         2.492726         1.282685         1.392403
