19
Iteration:  3297
 C        -0.147297        -0.156473        -0.283590
 C         1.340625         0.125413        -0.086787
 O         2.142905        -1.057428         0.113979
 C         2.514275        -0.166242        -1.093997
 C         3.436097         0.845716        -0.603627
 C         3.625011         2.103433        -1.491951
 C         2.454010         2.998342        -1.036392
 O         2.067230         2.642138         0.266477
 C         2.338653         1.299635         0.516708
 H        -0.807743        -0.463394         0.492870
 H        -0.551426         0.755370        -0.698219
 H        -0.385741        -0.801744        -1.187872
 H         2.515929        -0.787122        -2.027634
 H         4.258501         0.432007        -0.086275
 H         4.646535         2.594257        -1.332501
 H         3.641304         1.761500        -2.583851
 H         2.616400         4.060494        -0.868905
 H         1.598775         2.917163        -1.728604
 H         2.607529         1.031942         1.529578
