19
Iteration:   492charge 0 multiplicity 1
 C        -0.024389         0.130648        -0.176281
 C         1.449178         0.255509        -0.004695
 O         2.019477        -1.055745        -0.134496
 C         2.340169        -0.178862        -1.071994
 C         3.426823         0.767631        -0.587203
 C         3.719074         2.128112        -1.312440
 C         2.415732         2.814792        -1.101097
 O         1.953880         2.517291         0.200755
 C         2.468618         1.229583         0.532396
 H        -0.594740         0.117847         0.753369
 H        -0.319567         0.917727        -0.878235
 H        -0.077262        -0.840510        -0.737389
 H         2.322722        -0.481274        -2.203568
 H         4.441557         0.435656        -0.257217
 H         4.632025         2.606879        -0.882897
 H         3.851301         1.877882        -2.335241
 H         2.415078         3.910718        -1.141876
 H         1.541974         2.460242        -1.660722
 H         2.899107         1.287452         1.569891
