19
Iteration:   799
 C        -0.050006         0.086368        -0.192537
 C         1.352675         0.184195        -0.167872
 O         2.161120        -1.080300         0.089515
 C         2.349431        -0.166931        -1.123789
 C         3.491248         0.803578        -0.617317
 C         3.724640         2.074685        -1.335687
 C         2.465967         2.909465        -1.108420
 O         1.916659         2.550218         0.198730
 C         2.343127         1.252100         0.538955
 H        -0.424155        -0.625705         0.466639
 H        -0.398666         1.035871         0.190689
 H        -0.415967        -0.207839        -1.144181
 H         2.226044        -0.641209        -2.124169
 H         4.462469         0.326282        -0.338937
 H         4.586408         2.620003        -0.953779
 H         3.963473         1.839317        -2.359736
 H         2.458521         4.040883        -1.256933
 H         1.812689         2.633806        -2.029893
 H         2.591401         1.185416         1.653046
