19
Iteration:  4300
 C        -0.039444        -0.024594        -0.073119
 C         1.410951         0.223563        -0.256362
 O         2.102054        -1.007431        -0.126549
 C         2.497012        -0.102495        -1.226938
 C         3.478782         0.789516        -0.439702
 C         3.672001         2.061691        -1.265196
 C         2.333407         2.849669        -1.109174
 O         1.959212         2.605330         0.264452
 C         2.340507         1.258977         0.487443
 H        -0.222322        -0.404562         0.899789
 H        -0.750616         0.880604        -0.316869
 H        -0.243907        -0.923976        -0.732196
 H         2.412851        -0.574481        -2.224335
 H         4.435576         0.344140        -0.106962
 H         4.531761         2.624199        -0.793846
 H         4.007790         1.753481        -2.319366
 H         2.598727         3.916789        -1.159002
 H         1.578718         2.532208        -1.834031
 H         2.583534         1.065220         1.602974
