19
Iteration:  2208charge 0 multiplicity 1
 C        -0.152650         0.246976        -0.158180
 C         1.423297         0.072458        -0.163742
 O         2.240321        -1.120992         0.023650
 C         2.439399        -0.347065        -1.137469
 C         3.556488         0.809260        -0.604288
 C         3.721623         2.198183        -1.262616
 C         2.371780         2.972656        -1.085493
 O         1.818874         2.513470         0.184884
 C         2.347050         1.186052         0.458988
 H        -0.556982         0.334167         0.839265
 H        -0.186926         1.260269        -0.541905
 H        -0.688242        -0.416799        -0.757761
 H         2.653902        -0.857668        -2.099573
 H         4.451365         0.303082        -0.267931
 H         4.493985         2.609061        -0.556709
 H         3.991809         2.280451        -2.363078
 H         2.393149         4.047236        -1.172330
 H         1.695927         2.599751        -1.900629
 H         2.552869         1.335367         1.546812
