19
Iteration:  3303
 C        -0.125295        -0.094078        -0.282587
 C         1.344116         0.112496        -0.152616
 O         2.151416        -1.078864         0.149428
 C         2.489776        -0.149172        -1.111603
 C         3.471250         0.825326        -0.544286
 C         3.634718         2.129260        -1.486420
 C         2.446167         2.981968        -1.015182
 O         2.038248         2.647021         0.268964
 C         2.299446         1.235520         0.458748
 H        -0.786539        -0.423931         0.595884
 H        -0.644836         0.920175        -0.538028
 H        -0.235495        -0.811720        -1.062090
 H         2.412006        -0.733778        -1.994861
 H         4.510610         0.446678        -0.179420
 H         4.595375         2.547245        -1.357580
 H         3.700802         1.866741        -2.511999
 H         2.539093         4.105602        -1.156572
 H         1.544061         2.847647        -1.691272
 H         2.844211         1.099902         1.449513
