19
Iteration:   430charge 0 multiplicity 1
 C        -0.033408         0.172393        -0.164148
 C         1.389512         0.186591        -0.181931
 O         2.086772        -1.084600         0.024943
 C         2.492365        -0.277187        -1.147671
 C         3.478778         0.837914        -0.554561
 C         3.664738         2.049922        -1.430816
 C         2.457385         2.955438        -1.018848
 O         1.928814         2.558949         0.273665
 C         2.310692         1.182705         0.458051
 H        -0.357724        -0.134723         0.842290
 H        -0.549086         1.159755        -0.206249
 H        -0.510143        -0.534838        -0.850272
 H         2.467960        -0.645906        -2.141005
 H         4.391426         0.404504        -0.277312
 H         4.637000         2.528871        -1.204236
 H         3.699756         1.773057        -2.490277
 H         2.790493         3.995435        -1.031229
 H         1.682554         2.960450        -1.792759
 H         2.608419         1.055079         1.485605
