19
Iteration:  4270charge 0 multiplicity 1
 C        -0.196430         0.070170        -0.059275
 C         1.350455         0.091907        -0.178373
 O         2.186059        -1.107592        -0.206455
 C         2.504423        -0.138559        -1.198476
 C         3.519422         0.822904        -0.427713
 C         3.728374         2.238855        -1.297805
 C         2.353537         2.746902        -1.171372
 O         2.034445         2.654742         0.276954
 C         2.310528         1.216878         0.558046
 H        -0.640537        -0.109895         0.953504
 H        -0.751850         1.024344        -0.473304
 H        -0.534049        -0.705034        -0.728593
 H         2.395252        -0.649332        -2.221580
 H         4.520027         0.471130        -0.113291
 H         4.494319         2.888068        -0.777342
 H         4.064919         2.045425        -2.326051
 H         2.234164         3.864553        -1.385858
 H         1.591177         2.085087        -1.770575
 H         2.495634         1.191463         1.641268
