19
Iteration:  2472charge 0 multiplicity 1
 C        -0.012238         0.120079        -0.158711
 C         1.451305         0.103155        -0.088055
 O         2.138913        -1.120294        -0.023693
 C         2.559118        -0.245685        -1.067123
 C         3.435228         0.850574        -0.480641
 C         3.637431         2.058126        -1.440664
 C         2.512143         3.047904        -1.032296
 O         1.767866         2.565365         0.094184
 C         2.278271         1.203998         0.512215
 H        -0.515727        -0.029125         0.838769
 H        -0.478251         1.065780        -0.551964
 H        -0.220638        -0.651432        -0.864667
 H         2.608501        -0.640823        -2.039574
 H         4.365474         0.399744        -0.097646
 H         4.705331         2.457330        -1.196891
 H         3.722805         1.724851        -2.456182
 H         2.798417         4.073791        -0.672363
 H         1.928543         3.184035        -2.030984
 H         2.467468         1.080352         1.635154
