19
Iteration:   807
 C        -0.118225         0.115761        -0.210999
 C         1.478329         0.131031        -0.027552
 O         2.177883        -1.119385         0.018571
 C         2.431158        -0.155723        -1.095238
 C         3.413993         0.802481        -0.585986
 C         3.755356         2.076284        -1.417120
 C         2.442759         2.928839        -1.138127
 O         1.931013         2.591494         0.189719
 C         2.272227         1.233916         0.568363
 H        -0.535008        -0.635347         0.582759
 H        -0.569264         1.113808        -0.000739
 H        -0.451136        -0.185193        -1.250805
 H         2.076237        -0.559366        -2.094555
 H         4.343242         0.243694        -0.269339
 H         4.623831         2.600049        -0.891391
 H         3.889031         1.970545        -2.492669
 H         2.763948         3.986250        -1.138336
 H         1.774828         2.597158        -1.923917
 H         2.470286         1.169972         1.659216
