19
Iteration:  4768
 C        -0.099343        -0.147315        -0.302700
 C         1.409104         0.058139        -0.204570
 O         2.164280        -1.100346         0.190587
 C         2.493384        -0.381895        -1.036231
 C         3.372664         0.884420        -0.645356
 C         3.433645         2.096647        -1.670059
 C         2.844285         3.203275        -0.666627
 O         1.843178         2.633436         0.164886
 C         2.293831         1.310034         0.410083
 H        -0.316389        -0.444600         0.675555
 H        -0.501937         0.908344        -0.463984
 H        -0.399220        -0.907183        -0.993990
 H         2.756770        -0.911707        -1.943868
 H         4.349912         0.488627        -0.268890
 H         4.327123         2.473552        -2.219014
 H         2.650691         2.060509        -2.484432
 H         3.653019         3.748212        -0.213911
 H         2.266984         4.026581        -1.210375
 H         2.351593         1.193517         1.454914
