19
Iteration:   107
 C        -0.110234         0.181219        -0.218195
 C         1.429364         0.141170        -0.100201
 O         1.951204        -1.174306        -0.012038
 C         2.500174        -0.193223        -1.085830
 C         3.570765         0.812152        -0.570838
 C         3.653315         2.169241        -1.405473
 C         2.340793         2.888812        -1.166209
 O         2.088441         2.562056         0.273790
 C         2.385377         1.179432         0.535390
 H        -0.409785         0.177573         0.865095
 H        -0.452457         1.102085        -0.716219
 H        -0.487992        -0.705096        -0.759118
 H         2.372292        -0.661087        -1.983651
 H         4.567918         0.507453        -0.199554
 H         4.331853         2.780788        -0.846405
 H         4.050588         2.179966        -2.469393
 H         2.392601         3.957866        -1.199587
 H         1.443606         2.600866        -1.805807
 H         2.557032         1.149541         1.693804
