19
Iteration:  4129charge 0 multiplicity 1
 C        -0.078874        -0.083362        -0.464463
 C         1.344579         0.116550        -0.197052
 O         2.177718        -1.154144         0.164714
 C         2.473550        -0.268817        -1.051423
 C         3.380541         0.863878        -0.698439
 C         3.489692         2.044163        -1.504081
 C         2.453793         3.033663        -0.908103
 O         2.125909         2.735925         0.446265
 C         2.336523         1.295942         0.490823
 H        -0.748869        -0.225021         0.454180
 H        -0.460032         0.767894        -1.106820
 H        -0.017132        -0.998128        -0.970362
 H         2.453007        -0.857092        -1.988820
 H         4.418678         0.588661        -0.413567
 H         4.503474         2.462117        -1.367584
 H         3.430686         2.097938        -2.576705
 H         2.692172         4.165013        -0.897760
 H         1.701035         3.097015        -1.745558
 H         2.608310         1.018248         1.478376
