19
Iteration:  1358
 C        -0.097336        -0.013722        -0.143510
 C         1.394117         0.133624        -0.090867
 O         2.113766        -1.107136         0.038856
 C         2.462382        -0.248190        -1.083112
 C         3.450737         0.826208        -0.554301
 C         3.765961         2.158448        -1.381642
 C         2.533201         3.055768        -1.081330
 O         1.818061         2.534966         0.137720
 C         2.372801         1.299499         0.458732
 H        -0.556400        -0.296396         0.765494
 H        -0.639706         0.812893        -0.507248
 H        -0.470517        -0.727987        -0.880098
 H         2.304721        -0.658717        -2.037947
 H         4.396028         0.506493        -0.152316
 H         4.782683         2.462700        -1.096972
 H         3.735085         1.815994        -2.513604
 H         2.713541         4.152676        -0.966867
 H         1.911068         2.797115        -1.853430
 H         2.562289         1.197753         1.561612
