19
Iteration:   535
 C        -0.110635         0.309057        -0.070020
 C         1.450959         0.136024        -0.173635
 O         2.153262        -1.137467        -0.101242
 C         2.508307        -0.319227        -1.149340
 C         3.456880         0.876252        -0.494101
 C         3.657533         2.090023        -1.309988
 C         2.329013         2.838473        -1.114059
 O         2.023533         2.627185         0.242751
 C         2.323144         1.165124         0.466094
 H        -0.558092        -0.126970         0.795640
 H        -0.492118         1.266466        -0.240305
 H        -0.614529        -0.203056        -0.869238
 H         2.480928        -0.750771        -2.187459
 H         4.285132         0.337938        -0.002597
 H         4.610396         2.624667        -1.128564
 H         3.663987         1.857702        -2.351645
 H         2.432764         3.916603        -1.233786
 H         1.698991         2.418933        -1.828076
 H         2.520457         1.119828         1.552114
