19
Iteration:  3414
 C        -0.047578         0.107370        -0.122646
 C         1.420582         0.167378        -0.095884
 O         2.112814        -1.127642        -0.047077
 C         2.520295        -0.148197        -1.117238
 C         3.474872         0.837490        -0.538480
 C         3.699074         2.161833        -1.321762
 C         2.322454         2.798323        -1.169272
 O         1.990117         2.598618         0.244079
 C         2.290658         1.200813         0.475417
 H        -0.503123        -0.146754         0.843039
 H        -0.468792         1.111484        -0.467030
 H        -0.355554        -0.456805        -1.028421
 H         2.449535        -0.637041        -2.141721
 H         4.367805         0.554696         0.013316
 H         4.541148         2.692080        -0.948047
 H         3.948561         1.919482        -2.360683
 H         2.267300         3.859025        -1.405826
 H         1.593605         2.386679        -1.899308
 H         2.583478         1.127039         1.553944
