19
Iteration:  2608charge 0 multiplicity 1
 C        -0.084172        -0.138136        -0.249246
 C         1.386877         0.072184        -0.204063
 O         2.238136        -1.086017         0.218184
 C         2.556718        -0.320425        -1.017823
 C         3.375831         0.886854        -0.581071
 C         3.412334         2.056816        -1.556802
 C         2.870826         3.214185        -0.645258
 O         1.779648         2.628114        -0.047052
 C         2.207100         1.305135         0.311156
 H        -0.453537         0.173120         0.712946
 H        -0.622542         0.504042        -0.923436
 H        -0.388079        -1.195557        -0.411866
 H         2.507003        -0.842193        -2.068257
 H         4.333371         0.550353        -0.108885
 H         4.398449         2.237196        -1.950231
 H         2.648610         1.650316        -2.387431
 H         3.568730         3.542013         0.242447
 H         2.636136         4.116503        -1.227163
 H         2.609288         1.121851         1.326232
