19
Iteration:  3702
 C        -0.000926         0.105645        -0.133769
 C         1.473849         0.088784        -0.022852
 O         2.214413        -1.203678         0.117714
 C         2.410336        -0.225652        -1.036758
 C         3.362861         0.890736        -0.635793
 C         3.624926         2.133546        -1.514962
 C         2.715069         3.139040        -0.746848
 O         1.629348         2.404696        -0.131423
 C         2.336217         1.236022         0.391424
 H        -0.431280         0.277081         0.847137
 H        -0.169553         1.068911        -0.656005
 H        -0.200067        -0.833485        -0.622291
 H         2.209373        -0.599843        -2.048744
 H         4.367442         0.640647        -0.254921
 H         4.634366         2.389036        -1.818548
 H         3.095705         2.033564        -2.579299
 H         3.246175         3.490776         0.153341
 H         2.275453         3.997980        -1.267884
 H         2.626873         1.333435         1.483465
