19
Iteration:  3574charge 0 multiplicity 1
 C         0.006643         0.116810        -0.289169
 C         1.505668         0.128698        -0.125149
 O         2.231110        -1.080932         0.186473
 C         2.530630        -0.427499        -0.994527
 C         3.441653         0.836000        -0.638311
 C         3.356399         2.046434        -1.617725
 C         2.711383         3.151524        -0.700460
 O         1.692978         2.499592        -0.000213
 C         2.308317         1.272555         0.449631
 H        -0.452737        -0.047840         0.739424
 H        -0.279485         1.018156        -0.874942
 H        -0.210063        -0.663469        -0.953715
 H         2.148262        -0.769943        -1.968729
 H         4.473242         0.524712        -0.263650
 H         4.304264         2.519343        -2.023703
 H         2.713787         1.673307        -2.341175
 H         3.585481         3.493234        -0.043878
 H         2.298597         4.072749        -1.140437
 H         2.532561         1.425870         1.508564
