19
Iteration:   870
 C        -0.098101         0.184626        -0.228329
 C         1.372115         0.198433        -0.298321
 O         2.145961        -1.010206         0.089755
 C         2.557754        -0.245566        -1.129681
 C         3.486176         0.809979        -0.540919
 C         3.635278         2.083681        -1.323236
 C         2.334987         2.867396        -1.098466
 O         1.973967         2.527431         0.271308
 C         2.410484         1.197347         0.454754
 H        -0.413960         0.385548         0.864817
 H        -0.539465         1.081381        -0.670483
 H        -0.622710        -0.782758        -0.437749
 H         2.608670        -0.878464        -2.098902
 H         4.367593         0.324819        -0.085374
 H         4.639137         2.525102        -0.969557
 H         3.637792         1.853125        -2.426201
 H         2.307129         3.952830        -1.140807
 H         1.444683         2.571947        -1.704935
 H         2.506791         0.989138         1.493226
