19
Iteration:  2547
 C        -0.053095        -0.033644        -0.281113
 C         1.404612         0.090391        -0.112715
 O         2.212663        -1.073191         0.218351
 C         2.504397        -0.360512        -1.030260
 C         3.426929         0.810344        -0.657025
 C         3.488804         2.102560        -1.499328
 C         2.786934         3.235115        -0.808243
 O         1.735665         2.582613         0.000957
 C         2.240734         1.233870         0.453361
 H        -0.565384        -0.484126         0.667693
 H        -0.653726         0.947284        -0.549258
 H        -0.110207        -0.666356        -1.170078
 H         2.646348        -0.854962        -1.951118
 H         4.399659         0.535275        -0.195046
 H         4.549750         2.199273        -1.958678
 H         3.026842         1.847804        -2.396172
 H         3.510273         3.832284        -0.254777
 H         2.156388         3.933041        -1.401698
 H         2.500597         1.068798         1.556005
