19
Iteration:  3417
 C        -0.061595         0.079330        -0.103473
 C         1.383999         0.154068        -0.130582
 O         2.110859        -1.110176        -0.026126
 C         2.528970        -0.177755        -1.113431
 C         3.497275         0.868385        -0.550908
 C         3.715915         2.136716        -1.303177
 C         2.331383         2.824421        -1.163712
 O         1.988325         2.608116         0.262241
 C         2.281198         1.193268         0.452362
 H        -0.604976        -0.137859         0.826471
 H        -0.427439         1.078826        -0.405416
 H        -0.406535        -0.487043        -1.082740
 H         2.519850        -0.588901        -2.147113
 H         4.384116         0.539174        -0.066515
 H         4.554798         2.687048        -1.040894
 H         3.895929         1.939138        -2.370524
 H         2.280498         3.885277        -1.407978
 H         1.598131         2.445359        -1.937344
 H         2.727357         1.175880         1.445211
