19
Iteration:  3227
 C        -0.113303         0.133018        -0.206829
 C         1.354471         0.148746        -0.207306
 O         2.211682        -1.112276         0.105158
 C         2.561272        -0.266252        -1.069513
 C         3.500211         0.845345        -0.533722
 C         3.648801         2.099417        -1.417470
 C         2.310796         3.005828        -1.037046
 O         1.953956         2.487475         0.217435
 C         2.350735         1.231071         0.413356
 H        -0.517664         0.141598         0.865982
 H        -0.608503         0.987831        -0.821291
 H        -0.551710        -0.712873        -0.706032
 H         2.715308        -0.677927        -2.052563
 H         4.533642         0.556787        -0.233308
 H         4.582931         2.592057        -1.279521
 H         3.593937         1.957422        -2.483254
 H         2.766765         4.031682        -0.914412
 H         1.379304         3.021660        -1.735379
 H         2.337402         1.172062         1.535328
