19
Iteration:  1855
 C        -0.111814         0.093525        -0.163939
 C         1.422565         0.100886        -0.052345
 O         2.168720        -1.116673        -0.083094
 C         2.413619        -0.153239        -1.137396
 C         3.481611         0.880643        -0.478049
 C         3.725702         2.139368        -1.260500
 C         2.409171         2.884345        -1.178754
 O         1.947795         2.599832         0.140995
 C         2.340212         1.206367         0.549927
 H        -0.798699        -0.104146         0.713591
 H        -0.410073         0.992837        -0.763504
 H        -0.370898        -0.857680        -0.827830
 H         2.500250        -0.736487        -2.105546
 H         4.389905         0.289064        -0.121081
 H         4.427286         2.711508        -0.699797
 H         4.010254         1.964194        -2.293182
 H         2.296686         3.980680        -1.267638
 H         1.703916         2.457464        -1.901810
 H         2.451267         1.198685         1.622554
