19
Iteration:  2523charge 0 multiplicity 1
 C        -0.073062        -0.000601        -0.244411
 C         1.428449         0.068095        -0.123447
 O         2.172200        -1.087818         0.126638
 C         2.524628        -0.361033        -1.044510
 C         3.470722         0.877613        -0.536190
 C         3.523292         2.079597        -1.529050
 C         2.678631         3.142621        -0.887737
 O         1.786683         2.522369         0.061873
 C         2.247641         1.338307         0.455990
 H        -0.522720        -0.419992         0.673822
 H        -0.480608         1.065375        -0.309381
 H        -0.390347        -0.477711        -1.191686
 H         2.502651        -0.878581        -2.040310
 H         4.424307         0.621031        -0.008547
 H         4.585853         2.417845        -1.639467
 H         3.383917         1.719241        -2.520033
 H         3.237333         3.907711        -0.356474
 H         2.045654         3.655299        -1.587620
 H         2.495220         1.144438         1.505968
