19
Iteration:  4947
 C        -0.049350        -0.018775        -0.160123
 C         1.429941         0.124098        -0.128643
 O         2.181726        -1.072665        -0.051280
 C         2.413605        -0.145440        -1.215441
 C         3.457608         0.840156        -0.488808
 C         3.620816         2.030325        -1.407081
 C         2.459911         2.998578        -1.036140
 O         1.978332         2.584167         0.229489
 C         2.281264         1.259406         0.569282
 H        -0.398674        -0.521655         0.709272
 H        -0.540970         0.904186        -0.248731
 H        -0.274347        -0.620415        -1.054343
 H         2.086276        -0.363899        -2.215705
 H         4.363481         0.278361        -0.312586
 H         4.601312         2.535900        -1.303068
 H         3.578261         1.630704        -2.436625
 H         2.785385         4.021969        -0.672065
 H         1.709497         3.172556        -1.889755
 H         2.400106         1.165778         1.608184
