19
Iteration:  3040
 C        -0.089249        -0.010776        -0.141211
 C         1.375164         0.067843        -0.231632
 O         2.151479        -1.164068         0.025451
 C         2.541205        -0.212361        -1.047849
 C         3.394675         0.876293        -0.531992
 C         3.628398         2.100122        -1.511665
 C         2.615429         3.105485        -0.955364
 O         1.821271         2.539920         0.155296
 C         2.315451         1.305401         0.487551
 H        -0.232229         0.201898         0.952478
 H        -0.506285         0.702084        -0.778522
 H        -0.512557        -1.052676        -0.341307
 H         2.702427        -0.512293        -2.096158
 H         4.246959         0.494178         0.044696
 H         4.701350         2.313586        -1.598609
 H         3.450109         1.765129        -2.544336
 H         3.045862         4.071562        -0.540434
 H         1.985178         3.284522        -1.765543
 H         2.409434         1.376855         1.589031
