19
Iteration:  2262
 C        -0.159742         0.012189        -0.275780
 C         1.412304         0.196970        -0.162461
 O         2.096486        -1.128360        -0.067855
 C         2.573103        -0.139054        -1.060173
 C         3.503831         0.925710        -0.449504
 C         3.620487         2.014991        -1.415330
 C         2.395861         2.839644        -1.120012
 O         2.024914         2.592450         0.330922
 C         2.334983         1.307652         0.550786
 H        -0.707889        -0.094412         0.649191
 H        -0.772143         0.709094        -0.852546
 H        -0.207806        -0.909864        -0.832738
 H         2.427015        -0.149181        -2.212690
 H         4.362909         0.382474         0.014035
 H         4.594266         2.678269        -1.185719
 H         3.718608         1.861271        -2.567612
 H         2.545322         3.854504        -1.368332
 H         1.570480         2.453892        -1.684989
 H         2.594446         1.338816         1.659718
