19
Iteration:     4
 C        -0.096342         0.206429        -0.174235
 C         1.414307         0.204821        -0.144882
 O         2.083872        -1.099947        -0.015489
 C         2.456181        -0.239043        -1.104754
 C         3.460299         0.765845        -0.566514
 C         3.648014         2.086114        -1.408100
 C         2.419915         2.886007        -1.107144
 O         1.999246         2.584613         0.256174
 C         2.383287         1.191427         0.524936
 H        -0.394199        -0.054893         0.850330
 H        -0.491444         1.231775        -0.343904
 H        -0.460374        -0.578441        -0.854544
 H         2.428274        -0.766126        -2.128359
 H         4.504911         0.406326        -0.208097
 H         4.542642         2.632943        -0.967130
 H         3.860229         1.878248        -2.456030
 H         2.560481         4.000777        -1.151675
 H         1.580862         2.583219        -1.756013
 H         2.543874         1.137708         1.563612
