19
Iteration:  4056charge 0 multiplicity 1
 C         0.045546         0.357745        -0.170099
 C         1.518649         0.170596        -0.177869
 O         2.134963        -1.233551        -0.135372
 C         2.593388        -0.128489        -1.126680
 C         3.510355         0.825705        -0.419647
 C         3.511053         2.056810        -1.293660
 C         2.191095         2.763417        -1.088462
 O         1.911121         2.549697         0.215630
 C         2.392661         1.203223         0.510945
 H        -0.289970         0.547091         0.957596
 H        -0.163569         1.295372        -0.575638
 H        -0.411598        -0.494477        -0.710081
 H         2.619827        -0.549682        -2.212426
 H         4.513442         0.563059        -0.071921
 H         4.319109         2.841532        -0.976686
 H         3.711541         1.810306        -2.387316
 H         2.289382         3.835004        -1.427660
 H         1.349265         2.351724        -1.687454
 H         2.407128         1.190065         1.621677
