19
Iteration:  3239
 C        -0.200401         0.005760        -0.225285
 C         1.437260         0.158255        -0.267139
 O         2.179298        -1.091777         0.120880
 C         2.575282        -0.244007        -1.053458
 C         3.469614         0.878381        -0.562165
 C         3.544067         2.128200        -1.467211
 C         2.480018         3.027074        -1.072794
 O         1.977969         2.590681         0.267699
 C         2.320036         1.147743         0.483833
 H        -0.502839         0.037816         0.868347
 H        -0.615740         1.001975        -0.683214
 H        -0.454099        -0.928148        -0.662249
 H         2.580344        -0.724659        -2.008975
 H         4.311844         0.492072        -0.016159
 H         4.449908         2.629265        -1.276696
 H         3.477287         1.775868        -2.510722
 H         2.705269         4.110571        -0.915424
 H         1.727364         2.983308        -1.960307
 H         2.531339         0.869783         1.552922
