19
Iteration:  1686charge 0 multiplicity 1
 C        -0.042884         0.205284        -0.225397
 C         1.461685         0.182276        -0.202198
 O         2.169346        -1.095816         0.042421
 C         2.490449        -0.285657        -1.130554
 C         3.480152         0.813847        -0.491413
 C         3.658682         2.121757        -1.243906
 C         2.261896         2.773451        -1.141716
 O         1.953145         2.599147         0.234732
 C         2.366117         1.255445         0.451069
 H        -0.576704         0.187410         0.830388
 H        -0.275620         1.150911        -0.882135
 H        -0.522724        -0.558900        -0.875281
 H         2.399094        -0.736320        -2.191341
 H         4.398738         0.408636        -0.103418
 H         4.350507         2.861988        -0.793209
 H         3.984985         2.014076        -2.303499
 H         2.342675         3.852581        -1.382571
 H         1.527620         2.314012        -1.844192
 H         2.535687         1.100262         1.555337
