19
Iteration:  1017charge 0 multiplicity 1
 C        -0.085915         0.116446        -0.248026
 C         1.400145         0.206853        -0.038973
 O         2.232788        -1.007245         0.004583
 C         2.402346        -0.154224        -1.107185
 C         3.482955         0.739970        -0.583279
 C         3.677415         2.057110        -1.350403
 C         2.355785         2.837314        -1.155186
 O         1.958475         2.561766         0.177826
 C         2.367921         1.229011         0.590815
 H        -0.707316        -0.607306         0.388940
 H        -0.708256         1.081776        -0.114560
 H        -0.209082        -0.200784        -1.304295
 H         2.416241        -0.445969        -2.138492
 H         4.338569         0.243187        -0.147169
 H         4.496603         2.528647        -0.732164
 H         3.973367         2.021699        -2.438384
 H         2.303356         3.901386        -1.072616
 H         1.576118         2.486560        -1.744692
 H         2.492012         1.177137         1.722615
