19
Iteration:   533
 C        -0.108544         0.308982        -0.077562
 C         1.426103         0.123979        -0.148572
 O         2.171481        -1.130860        -0.115872
 C         2.505721        -0.293438        -1.137647
 C         3.436666         0.889004        -0.509864
 C         3.661824         2.084691        -1.303999
 C         2.320738         2.831081        -1.113236
 O         2.038365         2.619326         0.234476
 C         2.322376         1.163202         0.487598
 H        -0.599339        -0.115061         0.782039
 H        -0.454449         1.264979        -0.303988
 H        -0.640625        -0.228820        -0.842962
 H         2.473704        -0.726865        -2.173032
 H         4.269403         0.325373         0.028759
 H         4.598829         2.646595        -1.189003
 H         3.709241         1.812277        -2.385256
 H         2.497196         3.889099        -1.206698
 H         1.734492         2.386713        -1.905125
 H         2.514416         1.086585         1.567268
