19
Iteration:  4007
 C        -0.037739         0.108940        -0.152616
 C         1.427989         0.158328        -0.099098
 O         2.163869        -1.076932        -0.041782
 C         2.431986        -0.129087        -1.135387
 C         3.443072         0.813116        -0.615812
 C         3.703372         2.132086        -1.259959
 C         2.359838         2.819425        -1.196094
 O         1.916195         2.509127         0.181233
 C         2.369804         1.248262         0.569655
 H        -0.283797        -0.462383         0.751255
 H        -0.484603         1.141859         0.145327
 H        -0.458724        -0.318484        -1.102850
 H         2.223009        -0.452333        -2.113896
 H         4.341248         0.334224        -0.196035
 H         4.373268         2.652857        -0.607253
 H         4.103168         2.176635        -2.256525
 H         2.494045         3.900845        -1.278161
 H         1.478063         2.466982        -1.848667
 H         2.787201         1.274735         1.573000
