19
Iteration:  1644
 C        -0.116240         0.078471        -0.163836
 C         1.391718         0.098879         0.003001
 O         2.189175        -1.131336        -0.013152
 C         2.430826        -0.207067        -1.142748
 C         3.478704         0.829625        -0.476266
 C         3.718345         2.125401        -1.283889
 C         2.502895         3.007958        -1.130411
 O         1.818772         2.532146         0.051159
 C         2.372174         1.263180         0.447300
 H        -0.454550        -0.236105         0.843550
 H        -0.513521         1.040657        -0.524668
 H        -0.338048        -0.797682        -0.704770
 H         2.187581        -0.658129        -2.144528
 H         4.232046         0.302214         0.134522
 H         4.535012         2.704749        -0.857006
 H         3.844979         1.877177        -2.260225
 H         2.779779         4.094764        -0.978994
 H         1.855368         3.002997        -2.051997
 H         2.634504         1.341766         1.522985
