19
Iteration:  4952charge 0 multiplicity 1
 C        -0.058136         0.010519        -0.189862
 C         1.411389         0.147874        -0.140853
 O         2.192032        -1.062033        -0.068167
 C         2.474970        -0.151696        -1.203545
 C         3.414026         0.863053        -0.508696
 C         3.623962         2.031334        -1.409894
 C         2.435225         2.937379        -1.028651
 O         2.010569         2.572081         0.269133
 C         2.259438         1.262746         0.557096
 H        -0.384206        -0.524603         0.855081
 H        -0.704615         0.978053        -0.199783
 H        -0.317323        -0.697097        -0.987337
 H         1.975297        -0.593827        -2.130166
 H         4.392650         0.388452        -0.245164
 H         4.609770         2.521523        -1.333073
 H         3.720769         1.806369        -2.486052
 H         2.758162         3.951283        -0.852023
 H         1.739729         3.041656        -1.823346
 H         2.475420         1.201465         1.709812
