19
Iteration:   624
 C        -0.027982         0.082089        -0.285720
 C         1.389523         0.191119        -0.074396
 O         2.057660        -1.107263        -0.035049
 C         2.461450        -0.183790        -1.090509
 C         3.490808         0.752461        -0.460418
 C         3.617040         2.036539        -1.395910
 C         2.296631         2.973947        -1.089685
 O         2.072490         2.613586         0.259105
 C         2.415935         1.239232         0.518113
 H        -0.532720        -0.062161         0.644501
 H        -0.365401         1.009941        -0.783960
 H        -0.330808        -0.689146        -0.964563
 H         2.234454        -0.518440        -2.085318
 H         4.472963         0.346327        -0.150860
 H         4.565727         2.591797        -1.394121
 H         3.552445         1.702435        -2.423529
 H         2.627351         4.032891        -1.153420
 H         1.447779         2.705675        -1.673824
 H         2.760442         1.127656         1.579793
