19
Iteration:  1047
 C        -0.107916         0.096002        -0.138799
 C         1.423212         0.023917        -0.104492
 O         2.049183        -1.232512        -0.149102
 C         2.539860        -0.100354        -1.077475
 C         3.518776         0.864046        -0.436494
 C         3.709423         2.078765        -1.382564
 C         2.355839         2.836560        -1.184635
 O         1.960004         2.677859         0.172690
 C         2.347282         1.319483         0.610179
 H        -0.380999        -0.211030         0.855638
 H        -0.363974         1.134100        -0.198300
 H        -0.538790        -0.390594        -0.961449
 H         2.682071        -0.300735        -2.078653
 H         4.405673         0.452177         0.044315
 H         4.543150         2.722640        -0.902514
 H         4.055326         1.926142        -2.398700
 H         2.268536         3.885205        -1.319392
 H         1.503504         2.402085        -1.918621
 H         2.472983         1.275253         1.697312
