19
Iteration:  1771charge 0 multiplicity 1
 C        -0.062494         0.194229        -0.443570
 C         1.395674         0.015635        -0.107057
 O         2.194151        -1.120360         0.180144
 C         2.586050        -0.344399        -0.987094
 C         3.385327         0.821117        -0.594967
 C         3.601514         2.127560        -1.425467
 C         2.334129         3.043280        -1.038720
 O         2.026074         2.581573         0.286901
 C         2.300671         1.236967         0.429953
 H        -0.633458         0.028718         0.407444
 H        -0.281470         1.214101        -0.513409
 H        -0.291594        -0.368571        -1.334257
 H         2.447610        -0.915693        -1.975959
 H         4.321647         0.402232        -0.210498
 H         4.500819         2.716316        -1.329859
 H         3.599803         2.069956        -2.626041
 H         2.347302         4.112351        -0.962031
 H         1.590903         2.614099        -1.756245
 H         2.622692         1.056215         1.475094
