19
Iteration:   551
 C        -0.002063         0.238094        -0.118261
 C         1.400243         0.198738        -0.294331
 O         2.007503        -1.139860         0.006819
 C         2.556298        -0.301911        -1.099229
 C         3.546615         0.719905        -0.572644
 C         3.641121         2.102035        -1.380645
 C         2.322639         2.920233        -1.084728
 O         1.947864         2.580744         0.284728
 C         2.372630         1.262482         0.466002
 H        -0.128064        -0.377880         0.840568
 H        -0.216079         1.382739         0.107512
 H        -0.745109        -0.222258        -0.863591
 H         2.559245        -0.752231        -2.067006
 H         4.530460         0.495198        -0.149011
 H         4.421719         2.749644        -0.942139
 H         4.072643         1.988460        -2.429574
 H         2.506613         4.033414        -1.193749
 H         1.516357         2.465953        -1.843106
 H         2.376180         0.950940         1.509999
