19
Iteration:   155charge 0 multiplicity 1
 C        -0.074712         0.288383        -0.145087
 C         1.411415         0.124035        -0.146682
 O         2.122809        -1.125319         0.018592
 C         2.486757        -0.159476        -1.135794
 C         3.532826         0.780870        -0.531290
 C         3.668666         2.083303        -1.370759
 C         2.348754         2.840592        -1.082826
 O         1.983194         2.512284         0.187599
 C         2.287855         1.187651         0.498474
 H        -0.347547         0.206517         0.898014
 H        -0.189142         1.328718        -0.481842
 H        -0.615102        -0.389351        -0.800124
 H         2.542647        -0.452856        -2.267707
 H         4.441051         0.264937        -0.337323
 H         4.497745         2.786841        -1.068658
 H         3.838981         1.902967        -2.405165
 H         2.553812         3.957436        -0.978687
 H         1.549045         2.804407        -1.822354
 H         2.327693         1.091331         1.564419
