19
Iteration:  4871charge 0 multiplicity 1
 C        -0.107217         0.060874         0.027311
 C         1.379807         0.141417        -0.153105
 O         2.300450        -1.141698        -0.020281
 C         2.472828        -0.268138        -1.162799
 C         3.459459         0.786957        -0.560035
 C         3.681384         2.142812        -1.493179
 C         2.660314         3.153885        -0.762656
 O         1.673131         2.475527        -0.066660
 C         2.234041         1.226169         0.407507
 H        -0.358737         0.078118         1.137731
 H        -0.387618         1.006435        -0.379414
 H        -0.639151        -0.723880        -0.577737
 H         2.316542        -0.790438        -2.085085
 H         4.260078         0.274894        -0.036353
 H         4.644019         2.528195        -1.192211
 H         3.534068         2.091557        -2.546395
 H         3.309572         3.584225        -0.016140
 H         2.123079         3.913135        -1.397433
 H         2.480628         1.207023         1.460724
