19
Iteration:    73
 C        -0.133265         0.178611        -0.351046
 C         1.381164         0.212134         0.055262
 O         2.263670        -1.099000        -0.076093
 C         2.309337        -0.191766        -1.076033
 C         3.501278         0.741110        -0.558170
 C         3.648018         1.965065        -1.449161
 C         2.445653         2.884599        -0.991595
 O         1.958126         2.607259         0.264671
 C         2.402724         1.294518         0.517118
 H        -0.743943        -0.035632         0.586200
 H        -0.475853         1.201911        -0.597515
 H        -0.389910        -0.645104        -1.066059
 H         2.037344        -0.517957        -2.050085
 H         4.390882         0.256828        -0.047278
 H         4.582301         2.457182        -1.230121
 H         3.583283         1.855937        -2.587384
 H         2.680710         3.933051        -1.042744
 H         1.625286         2.608808        -1.740990
 H         2.741920         1.188491         1.637138
