19
Iteration:  2934
 C        -0.073634         0.040562        -0.222378
 C         1.411839         0.084172        -0.152625
 O         2.166903        -1.094344         0.064037
 C         2.595589        -0.250385        -1.046318
 C         3.454295         0.879090        -0.572382
 C         3.506413         2.015238        -1.592879
 C         2.651303         3.159109        -0.860921
 O         1.832162         2.498604         0.135515
 C         2.226218         1.267623         0.535520
 H        -0.503080        -0.505048         0.640749
 H        -0.470218         1.073542        -0.057016
 H        -0.391104        -0.316780        -1.169814
 H         2.877544        -0.904478        -1.849018
 H         4.391340         0.513884        -0.245958
 H         4.555623         2.197144        -1.740493
 H         3.100441         1.563701        -2.544696
 H         3.022799         4.082718        -0.556303
 H         1.910714         3.542137        -1.695415
 H         2.486303         1.383192         1.600312
