19
Iteration:  4922charge 0 multiplicity 1
 C        -0.131426        -0.005481        -0.110466
 C         1.398357         0.083349        -0.027731
 O         2.145837        -1.190016        -0.102436
 C         2.480443        -0.265648        -1.084320
 C         3.407379         0.914548        -0.585096
 C         3.672644         2.130328        -1.429562
 C         2.594402         3.109022        -0.977501
 O         1.829052         2.543505         0.143281
 C         2.369958         1.295307         0.505341
 H        -0.440455        -0.545243         0.707704
 H        -0.734816         0.972595        -0.192342
 H        -0.323118        -0.638729        -1.016580
 H         2.204850        -0.651498        -2.110266
 H         4.390595         0.489814        -0.259515
 H         4.672996         2.428896        -1.148147
 H         3.607108         1.961307        -2.584115
 H         2.915367         4.073556        -0.523209
 H         1.970134         3.306020        -1.872303
 H         2.866329         1.252562         1.485581
