19
Iteration:  1600charge 0 multiplicity 1
 C        -0.153646        -0.096381         0.008825
 C         1.292033         0.130879        -0.194807
 O         2.173356        -1.020756        -0.026021
 C         2.559863        -0.199635        -1.073813
 C         3.433085         0.851522        -0.447980
 C         3.799160         2.013562        -1.336229
 C         2.613256         3.187661        -1.087392
 O         1.818311         2.560583         0.025974
 C         2.228922         1.198119         0.386139
 H        -0.320281        -0.607191         0.934443
 H        -0.745332         0.821993         0.084748
 H        -0.525530        -0.807795        -0.652165
 H         2.627186        -0.633434        -2.136592
 H         4.362834         0.470714        -0.006207
 H         4.824270         2.259834        -1.080381
 H         3.701495         1.658596        -2.299373
 H         2.878472         4.259172        -0.835024
 H         1.876215         3.263015        -1.921235
 H         2.410737         1.100179         1.475730
