19
Iteration:   753charge 0 multiplicity 1
 C        -0.118869         0.141075        -0.130197
 C         1.406682         0.104092        -0.215779
 O         2.118329        -1.193134        -0.030608
 C         2.521574        -0.208093        -1.115221
 C         3.413871         0.815150        -0.441807
 C         3.703278         2.125483        -1.329742
 C         2.367162         2.878100        -1.134637
 O         2.064968         2.671049         0.234275
 C         2.314186         1.270411         0.439540
 H        -0.488810        -0.433417         0.752571
 H        -0.315152         1.134210         0.218467
 H        -0.758515        -0.215548        -0.931991
 H         2.466914        -0.659986        -2.144544
 H         4.344801         0.285827        -0.075178
 H         4.552352         2.803266        -1.031931
 H         3.740221         1.893125        -2.359547
 H         2.520917         3.886147        -1.532929
 H         1.651147         2.527295        -1.915627
 H         2.298002         1.064430         1.526724
