19
Iteration:  3431
 C        -0.204213         0.027415        -0.152464
 C         1.372756         0.086284        -0.242543
 O         2.162206        -1.039066         0.040516
 C         2.526252        -0.279435        -1.108247
 C         3.475258         0.834476        -0.535118
 C         3.690273         2.141899        -1.396784
 C         2.409568         2.953778        -1.090119
 O         1.972124         2.606506         0.240008
 C         2.381974         1.287022         0.460426
 H        -0.357890        -0.426598         0.860751
 H        -0.586500         1.032352        -0.191958
 H        -0.711322        -0.647424        -0.836053
 H         2.540222        -0.799094        -2.036544
 H         4.433879         0.350286        -0.178658
 H         4.607165         2.709432        -0.910845
 H         3.833402         1.915848        -2.470428
 H         2.551098         4.054737        -1.112002
 H         1.600695         2.561003        -1.726105
 H         2.354291         1.004814         1.520477
