19
Iteration:  4422
 C        -0.074523        -0.006715        -0.333160
 C         1.401057         0.177560        -0.183314
 O         2.203005        -1.225193        -0.041602
 C         2.507137        -0.279657        -1.115161
 C         3.396752         0.884603        -0.473894
 C         3.466621         2.041096        -1.430835
 C         2.467643         3.102879        -1.011194
 O         2.027965         2.671990         0.417556
 C         2.382144         1.248828         0.485754
 H        -0.590451        -0.107697         0.559842
 H        -0.540924         0.934385        -0.918242
 H        -0.286755        -0.917924        -0.764915
 H         2.446688        -0.764879        -2.146000
 H         4.320102         0.419189        -0.214951
 H         4.452561         2.638376        -1.595748
 H         3.264207         1.576772        -2.462181
 H         2.877284         4.144861        -1.087951
 H         1.667502         3.256339        -1.677292
 H         2.372447         1.094912         1.674967
