19
Iteration:  1455charge 0 multiplicity 1
 C         0.035930         0.208137        -0.432739
 C         1.453004         0.234396        -0.132206
 O         2.117148        -1.035478         0.130437
 C         2.478081        -0.208532        -1.065658
 C         3.541451         0.789513        -0.547026
 C         3.583838         2.060906        -1.430248
 C         2.205080         2.743447        -1.115745
 O         2.002953         2.568067         0.365615
 C         2.416272         1.241842         0.532448
 H        -0.730520         0.033273         0.347268
 H        -0.335148         1.088917        -0.982905
 H        -0.197608        -0.616129        -1.190836
 H         2.320685        -0.600553        -2.061751
 H         4.430737         0.231189        -0.357295
 H         4.202751         2.757365        -0.882586
 H         3.785661         2.067656        -2.522668
 H         2.240449         3.839043        -1.363929
 H         1.412841         2.099193        -1.635714
 H         2.624777         1.190901         1.653180
