19
Iteration:  1346
 C        -0.120327        -0.020390        -0.177215
 C         1.387931         0.127731         0.004453
 O         2.197464        -1.142739         0.018770
 C         2.356185        -0.212905        -1.084551
 C         3.431752         0.825921        -0.548561
 C         3.683199         2.123069        -1.321127
 C         2.525333         3.019707        -1.099240
 O         1.929908         2.600203         0.055815
 C         2.307481         1.220843         0.463861
 H        -0.574763        -0.218451         0.763992
 H        -0.398629         0.940316        -0.542398
 H        -0.080162        -0.913060        -0.809903
 H         2.329601        -0.537555        -2.065671
 H         4.246037         0.344624        -0.061735
 H         4.550745         2.647606        -0.850524
 H         3.926904         2.277623        -2.462724
 H         2.800503         4.097875        -1.016512
 H         1.855141         3.077146        -1.880783
 H         2.677124         1.397201         1.509565
