19
Iteration:   414
 C        -0.097357         0.106284        -0.207690
 C         1.428711         0.150660        -0.078136
 O         2.017308        -1.139730        -0.026653
 C         2.474732        -0.173845        -1.039854
 C         3.557919         0.701479        -0.589504
 C         3.579943         2.112726        -1.412176
 C         2.448291         3.035787        -1.070391
 O         1.982857         2.530679         0.172362
 C         2.460770         1.250159         0.574647
 H        -0.698364        -0.367521         0.631354
 H        -0.500422         1.118063        -0.463705
 H        -0.393746        -0.450733        -1.126540
 H         2.281510        -0.661173        -2.091471
 H         4.575765         0.343926        -0.105689
 H         4.599646         2.540333        -1.346012
 H         3.557051         1.945549        -2.514498
 H         2.625650         4.111693        -0.836108
 H         1.487301         3.106567        -1.714838
 H         2.463499         1.299507         1.745445
