19
Iteration:  3715
 C        -0.078661         0.181756        -0.119087
 C         1.449010         0.085558        -0.008212
 O         2.228180        -1.105926         0.071757
 C         2.514957        -0.332652        -1.049478
 C         3.504046         0.819480        -0.651689
 C         3.487347         2.118062        -1.538473
 C         2.683501         3.196901        -0.684668
 O         1.679034         2.323660        -0.159229
 C         2.334412         1.256285         0.439734
 H        -0.648323         0.157593         0.903429
 H        -0.455366         1.030860        -0.777227
 H        -0.547026        -0.616137        -0.616830
 H         2.308386        -0.671576        -2.114023
 H         4.503252         0.484274        -0.194938
 H         4.551921         2.448318        -1.445353
 H         3.133240         2.036517        -2.592997
 H         3.302478         3.781289         0.009834
 H         2.198692         3.891938        -1.347160
 H         2.630328         1.498840         1.537529
