19
Iteration:  3113charge 0 multiplicity 1
 C        -0.140378         0.053875        -0.186062
 C         1.375189         0.077674        -0.145035
 O         2.178057        -1.137784         0.031665
 C         2.507276        -0.198810        -1.051469
 C         3.447202         0.843935        -0.508028
 C         3.681465         2.144337        -1.409465
 C         2.377103         2.986493        -1.109676
 O         1.973134         2.579301         0.160416
 C         2.350160         1.232485         0.496677
 H        -0.389528        -0.485202         0.722904
 H        -0.418273         1.095585        -0.068677
 H        -0.694303        -0.434961        -1.045602
 H         2.545282        -0.632861        -2.078084
 H         4.445556         0.537125        -0.059212
 H         4.638283         2.645270        -1.143733
 H         3.832132         2.058484        -2.455761
 H         2.655747         4.046389        -1.093312
 H         1.475540         2.862722        -1.809462
 H         2.548665         1.006439         1.544668
