19
Iteration:  1245
 C        -0.051662         0.311415        -0.294820
 C         1.427343         0.117706        -0.067189
 O         2.235654        -1.130602        -0.016225
 C         2.500721        -0.153176        -1.046620
 C         3.474595         0.824706        -0.484838
 C         3.641880         2.151649        -1.405393
 C         2.284172         2.766780        -1.193926
 O         1.890955         2.537840         0.251586
 C         2.368167         1.129549         0.593511
 H        -0.577865        -0.078052         0.604678
 H        -0.124470         1.438155        -0.417525
 H        -0.354102        -0.199980        -1.211390
 H         2.391846        -0.444220        -2.161699
 H         4.414407         0.359571        -0.136842
 H         4.514919         2.776486        -1.072128
 H         3.692843         1.794400        -2.478764
 H         2.373441         3.807982        -1.296378
 H         1.570419         2.392629        -1.858346
 H         2.565432         1.293223         1.690914
