19
Iteration:  2823charge 0 multiplicity 1
 C        -0.127278        -0.086402        -0.158032
 C         1.394389         0.010886        -0.178546
 O         2.242302        -1.081098         0.155373
 C         2.579187        -0.351775        -1.044076
 C         3.352187         0.840285        -0.607011
 C         3.432886         2.139520        -1.615424
 C         2.906828         3.206378        -0.624311
 O         1.761442         2.614074        -0.061628
 C         2.190158         1.283228         0.396393
 H        -0.545503         0.388098         0.735655
 H        -0.469768         0.446609        -0.973536
 H        -0.395863        -1.143512        -0.388827
 H         2.751002        -0.871427        -2.044589
 H         4.279992         0.611713        -0.200609
 H         4.439704         2.138008        -2.030323
 H         2.808035         1.849275        -2.410840
 H         3.609059         3.593039         0.148034
 H         2.559965         4.131758        -1.202317
 H         2.389812         1.269885         1.464295
