19
Iteration:  2481charge 0 multiplicity 1
 C        -0.008927         0.103165        -0.157670
 C         1.444792         0.136835        -0.083000
 O         2.149368        -1.120559        -0.035451
 C         2.586200        -0.276622        -1.087239
 C         3.410270         0.873697        -0.457709
 C         3.627960         2.046968        -1.402439
 C         2.530025         3.005724        -1.033778
 O         1.788417         2.547831         0.082363
 C         2.261890         1.214813         0.496115
 H        -0.506276        -0.183398         0.876287
 H        -0.283640         1.207870        -0.533682
 H        -0.357923        -0.656108        -0.905748
 H         2.458584        -0.739428        -2.066232
 H         4.373862         0.550649         0.019825
 H         4.629630         2.661336        -1.430325
 H         3.412488         1.810154        -2.408038
 H         3.129152         3.897315        -0.656914
 H         1.846522         3.403532        -1.931440
 H         2.295182         1.395125         1.622000
