19
Iteration:   376
 C        -0.087563         0.189470        -0.243336
 C         1.442239         0.127698        -0.095190
 O         2.203097        -1.094130         0.028127
 C         2.419468        -0.201529        -1.181694
 C         3.457267         0.724113        -0.601739
 C         3.663536         2.016971        -1.443705
 C         2.378334         2.953907        -1.035472
 O         2.016359         2.612047         0.303153
 C         2.245434         1.242229         0.582247
 H        -0.556988        -0.264533         0.634271
 H        -0.290637         1.275646        -0.316635
 H        -0.317506        -0.307163        -1.189716
 H         2.378367        -0.471910        -2.187852
 H         4.362154         0.153991        -0.346828
 H         4.629488         2.503922        -1.250722
 H         3.454512         1.804498        -2.503107
 H         2.708898         3.976397        -1.140719
 H         1.625793         2.635741        -1.732577
 H         2.506391         1.217922         1.599193
