19
Iteration:    71charge 0 multiplicity 1
 C        -0.149584         0.181060        -0.332483
 C         1.358021         0.209177         0.033330
 O         2.288005        -1.088263        -0.067338
 C         2.329221        -0.195600        -1.066948
 C         3.509345         0.747103        -0.573494
 C         3.649814         1.954109        -1.456524
 C         2.451968         2.880412        -0.994304
 O         1.951142         2.603524         0.281448
 C         2.382775         1.293878         0.518912
 H        -0.763358        -0.021035         0.573370
 H        -0.495162         1.224507        -0.576460
 H        -0.484945        -0.573181        -1.085576
 H         2.058715        -0.539927        -2.137060
 H         4.462665         0.223722        -0.088991
 H         4.633010         2.459956        -1.238167
 H         3.610366         1.812830        -2.569011
 H         2.705653         3.965836        -1.049613
 H         1.642148         2.642867        -1.728185
 H         2.665750         1.165201         1.568704
