19
Iteration:  4519charge 0 multiplicity 1
 C        -0.055546         0.292499        -0.155789
 C         1.457654         0.197868        -0.081545
 O         2.153262        -1.131055        -0.207390
 C         2.544098        -0.149863        -1.119099
 C         3.639412         0.863401        -0.458512
 C         3.606367         2.060740        -1.391571
 C         2.300238         2.762074        -1.055263
 O         1.815046         2.433649         0.206322
 C         2.394226         1.237825         0.624516
 H        -0.527785         0.013654         0.697161
 H        -0.338256         1.430709        -0.392097
 H        -0.501064        -0.321441        -0.903621
 H         2.471013        -0.322442        -2.175072
 H         4.616605         0.579091        -0.040350
 H         4.504182         2.723876        -1.224272
 H         3.602173         1.783314        -2.471569
 H         2.271910         3.870374        -1.108901
 H         1.500917         2.579204        -1.858962
 H         2.505384         1.083623         1.770974
