19
Iteration:  2961
 C        -0.057742         0.105963        -0.277138
 C         1.439910         0.095949        -0.138964
 O         2.220593        -1.154233         0.126074
 C         2.473309        -0.339514        -1.040425
 C         3.436479         0.885701        -0.631002
 C         3.535855         2.060419        -1.480084
 C         2.569101         3.163525        -0.863596
 O         1.811690         2.528873         0.126822
 C         2.346876         1.231418         0.464337
 H        -0.351169        -0.349110         0.697465
 H        -0.639163         1.083183        -0.281981
 H        -0.291821        -0.508013        -1.228864
 H         2.176450        -0.750458        -2.037617
 H         4.438556         0.477086        -0.191510
 H         4.612726         2.330660        -1.503285
 H         3.322214         1.586004        -2.397637
 H         2.912039         4.216200        -0.605023
 H         1.988126         3.495288        -1.793310
 H         2.621579         1.423401         1.531455
