19
Iteration:  3386charge 0 multiplicity 1
 C        -0.046079         0.273917        -0.177965
 C         1.494360         0.203304        -0.030466
 O         2.153460        -1.134643        -0.154828
 C         2.507998        -0.061777        -1.101210
 C         3.554485         0.790544        -0.483732
 C         3.618806         2.083616        -1.246113
 C         2.197762         2.669295        -1.234664
 O         1.862312         2.514704         0.195071
 C         2.447597         1.239451         0.595063
 H        -0.569097         0.209992         0.779630
 H        -0.138804         1.224051        -0.635244
 H        -0.447762        -0.378973        -1.028839
 H         2.257188        -0.326055        -2.122367
 H         4.549239         0.435702        -0.120003
 H         4.426090         2.814209        -0.780601
 H         3.968493         1.739526        -2.255634
 H         2.322497         3.747000        -1.392567
 H         1.452312         2.200789        -1.922100
 H         2.860399         1.312847         1.613633
