19
Iteration:   158charge 0 multiplicity 1
 C        -0.075879         0.274831        -0.145362
 C         1.413647         0.147818        -0.126215
 O         2.108564        -1.148293         0.000181
 C         2.488571        -0.174702        -1.125431
 C         3.516290         0.803188        -0.529908
 C         3.666753         2.091751        -1.355875
 C         2.364363         2.874520        -1.095970
 O         1.972429         2.503082         0.187928
 C         2.327974         1.179756         0.494662
 H        -0.451660         0.180080         0.880857
 H        -0.248046         1.304910        -0.505228
 H        -0.636950        -0.369499        -0.837061
 H         2.487958        -0.489818        -2.176175
 H         4.532637         0.313346        -0.302699
 H         4.527731         2.722489        -1.082926
 H         3.811051         1.840544        -2.432594
 H         2.500800         3.966875        -1.032123
 H         1.569405         2.764303        -1.842669
 H         2.424723         1.161178         1.562352
