19
Iteration:  4141charge 0 multiplicity 1
 C        -0.081901        -0.151298        -0.458168
 C         1.397696         0.094725        -0.139508
 O         2.117873        -1.081441         0.136773
 C         2.469222        -0.254949        -1.063733
 C         3.411834         0.828754        -0.558126
 C         3.516287         2.149765        -1.510257
 C         2.458608         3.143257        -0.952201
 O         2.164854         2.654773         0.379181
 C         2.322478         1.250234         0.429562
 H        -0.691549        -0.306618         0.533824
 H        -0.546579         0.679656        -0.984553
 H        -0.247082        -1.005743        -1.090862
 H         2.405775        -0.753334        -2.089367
 H         4.355198         0.421553        -0.140368
 H         4.565886         2.483064        -1.643373
 H         3.105454         1.738278        -2.409405
 H         2.912414         4.193633        -0.856058
 H         1.443804         3.053722        -1.374608
 H         2.484643         1.049778         1.471595
