19
Iteration:   227charge 0 multiplicity 1
 C        -0.275649         0.108130        -0.095795
 C         1.316887         0.192605        -0.270717
 O         2.208148        -1.037447         0.002956
 C         2.508722        -0.255795        -1.149827
 C         3.498041         0.827971        -0.648585
 C         3.750865         2.013220        -1.401034
 C         2.429493         2.846502        -1.019167
 O         2.013164         2.637083         0.330822
 C         2.303472         1.289195         0.458878
 H        -0.471871        -0.369697         0.886495
 H        -0.469949         1.176433        -0.157133
 H        -0.709558        -0.380140        -0.975794
 H         2.512306        -0.868781        -1.993155
 H         4.344210         0.337528        -0.106041
 H         4.635757         2.480771        -0.997740
 H         3.945022         1.879744        -2.505463
 H         2.520519         3.894930        -1.174867
 H         1.611601         2.530894        -1.693586
 H         2.396678         0.915463         1.522187
