19
Iteration:   380
 C        -0.022797         0.163518        -0.256997
 C         1.416121         0.124136        -0.074934
 O         2.187085        -1.118274         0.018947
 C         2.404180        -0.174836        -1.150502
 C         3.442952         0.749011        -0.612641
 C         3.660860         2.035398        -1.466146
 C         2.428242         2.939821        -1.054866
 O         1.987274         2.612168         0.325856
 C         2.267860         1.247166         0.569617
 H        -0.698546        -0.214250         0.571135
 H        -0.295186         1.233590        -0.255399
 H        -0.333468        -0.297424        -1.205458
 H         2.226634        -0.479058        -2.215112
 H         4.434708         0.210761        -0.176253
 H         4.668625         2.409089        -1.254869
 H         3.446175         1.776417        -2.553840
 H         2.745122         4.005657        -1.153996
 H         1.534512         2.664969        -1.751284
 H         2.549909         1.222475         1.674351
