19
Iteration:  3144
 C         0.013615         0.135281        -0.176936
 C         1.455293         0.209004        -0.193832
 O         2.118207        -1.050346        -0.086334
 C         2.516402        -0.189549        -1.105294
 C         3.537350         0.785179        -0.465173
 C         3.725177         2.054721        -1.343082
 C         2.172891         2.758719        -1.130837
 O         1.961758         2.620110         0.220044
 C         2.333626         1.246425         0.545010
 H        -0.237769        -0.272754         0.770753
 H        -0.293687         1.177808        -0.042602
 H        -0.481567        -0.450712        -0.907984
 H         2.461133        -0.433714        -2.170791
 H         4.353384         0.482753         0.192591
 H         4.566110         2.617109        -0.900941
 H         3.735430         1.998049        -2.490893
 H         2.190417         3.766919        -1.476420
 H         1.335812         2.300757        -1.683408
 H         2.277475         1.147827         1.638615
