19
Iteration:   650charge 0 multiplicity 1
 C        -0.095665         0.192375        -0.217932
 C         1.347279         0.233131        -0.223018
 O         2.099036        -1.017191         0.020733
 C         2.610901        -0.291136        -1.091835
 C         3.456407         0.808063        -0.534706
 C         3.651730         2.137414        -1.454535
 C         2.358096         2.858601        -1.072522
 O         2.036709         2.527976         0.335725
 C         2.304364         1.160507         0.472793
 H        -0.279895         0.404647         0.924720
 H        -0.656868         0.976078        -0.918900
 H        -0.623633        -0.794598        -0.498600
 H         2.600890        -1.041889        -1.910950
 H         4.443282         0.472442        -0.146274
 H         4.574323         2.659029        -1.157631
 H         3.714969         2.216727        -2.620844
 H         2.659354         3.914122        -1.131692
 H         1.539230         2.453231        -1.670700
 H         2.494413         0.828673         1.522290
