19
Iteration:  1348
 C        -0.116187        -0.022509        -0.171866
 C         1.376868         0.139606        -0.001638
 O         2.184165        -1.142590         0.026439
 C         2.369968        -0.220261        -1.094232
 C         3.440153         0.821699        -0.543056
 C         3.682626         2.132934        -1.332002
 C         2.543534         3.023479        -1.084900
 O         1.909167         2.585348         0.070049
 C         2.320682         1.224302         0.458941
 H        -0.568953        -0.210492         0.756303
 H        -0.451108         0.908445        -0.524575
 H        -0.132531        -0.882671        -0.843973
 H         2.350463        -0.554744        -2.111184
 H         4.310720         0.407907        -0.014661
 H         4.622417         2.597956        -0.942593
 H         3.908315         2.295697        -2.469132
 H         2.763719         4.141932        -1.075822
 H         1.846352         3.023708        -1.924511
 H         2.674219         1.437024         1.461742
