19
Iteration:  2149charge 0 multiplicity 1
 C        -0.096051         0.002403        -0.161202
 C         1.353405         0.179807        -0.089608
 O         2.185680        -1.097923        -0.135689
 C         2.478579        -0.096368        -1.077514
 C         3.436504         0.937039        -0.393044
 C         3.652254         2.006730        -1.341955
 C         2.400383         2.860250        -1.183340
 O         1.986468         2.625083         0.183620
 C         2.328830         1.207873         0.531462
 H        -0.413315        -0.542915         0.737680
 H        -0.611517         0.970482        -0.169480
 H        -0.258392        -0.592251        -1.112699
 H         2.440032        -0.306314        -2.158266
 H         4.316504         0.411012         0.098205
 H         4.613704         2.615844        -1.002682
 H         3.949813         1.748354        -2.346750
 H         2.587439         3.929150        -1.359258
 H         1.635462         2.538811        -1.853828
 H         2.572351         1.070890         1.611298
