19
Iteration:  4082charge 0 multiplicity 1
 C        -0.045500         0.231465        -0.296312
 C         1.457037         0.158004        -0.201377
 O         2.103297        -1.111754         0.027624
 C         2.633811        -0.224913        -1.089033
 C         3.489356         0.861326        -0.544280
 C         3.580667         2.132447        -1.482696
 C         2.293351         2.835646        -1.044309
 O         1.925918         2.501877         0.367000
 C         2.381842         1.188626         0.525174
 H        -0.337932         0.479692         0.645843
 H        -0.370356         1.127024        -0.906118
 H        -0.488613        -0.729348        -0.600063
 H         2.612773        -0.741431        -2.015476
 H         4.499706         0.584485        -0.223582
 H         4.412624         2.761217        -1.246994
 H         3.628189         1.958971        -2.555078
 H         2.390805         3.890697        -1.091986
 H         1.420053         2.663974        -1.707112
 H         2.513606         1.011751         1.618152
