19
Iteration:   762charge 0 multiplicity 1
 C        -0.173009         0.103974        -0.091907
 C         1.396852         0.106683        -0.258529
 O         2.090239        -1.140937        -0.018964
 C         2.523221        -0.267402        -1.064119
 C         3.490762         0.831268        -0.540793
 C         3.704127         2.153568        -1.334605
 C         2.396303         2.891761        -1.220077
 O         2.068518         2.655992         0.251450
 C         2.266318         1.243590         0.481598
 H        -0.414694        -0.625260         0.797901
 H        -0.347718         1.165341         0.197343
 H        -0.825669        -0.011957        -1.012883
 H         2.680981        -0.726553        -2.035042
 H         4.490289         0.448863        -0.264683
 H         4.526577         2.652220        -0.733005
 H         4.054409         2.000052        -2.380298
 H         2.480687         3.945407        -1.234939
 H         1.529046         2.495371        -1.632242
 H         2.266950         1.100377         1.545053
