19
Iteration:   896charge 0 multiplicity 1
 C        -0.072702         0.190330        -0.284547
 C         1.372442         0.120588        -0.144446
 O         2.162132        -1.141717         0.072559
 C         2.498787        -0.332976        -1.084258
 C         3.467358         0.843482        -0.635332
 C         3.632948         2.170398        -1.372967
 C         2.295439         2.872884        -1.120290
 O         2.125320         2.617277         0.318269
 C         2.300467         1.231658         0.465329
 H        -0.777328         0.665130         0.527315
 H        -0.164876         0.999194        -1.087758
 H        -0.553007        -0.777473        -0.564920
 H         2.397038        -0.931312        -1.957814
 H         4.384761         0.453878        -0.122585
 H         4.401892         2.651454        -0.703996
 H         3.896500         2.170995        -2.427487
 H         2.332579         3.995155        -1.189963
 H         1.380020         2.415676        -1.559925
 H         2.409258         1.035780         1.585420
