19
Iteration:  2083charge 0 multiplicity 1
 C        -0.066836         0.190950        -0.269479
 C         1.441883         0.096475        -0.174417
 O         2.186240        -1.120858         0.098211
 C         2.526773        -0.239274        -1.076283
 C         3.493840         0.832878        -0.542832
 C         3.579040         2.133600        -1.401066
 C         2.393302         2.967475        -1.114344
 O         1.918353         2.599298         0.243291
 C         2.316644         1.090214         0.507663
 H        -0.528209         0.059593         0.684421
 H        -0.308899         1.067513        -0.835303
 H        -0.541772        -0.561637        -0.878654
 H         2.276604        -0.901460        -1.952865
 H         4.582379         0.657487        -0.263475
 H         4.565050         2.681624        -1.025248
 H         3.897665         1.918650        -2.432964
 H         2.572734         4.068972        -1.108530
 H         1.549067         2.776666        -1.748657
 H         2.281850         1.151886         1.582382
