19
Iteration:    52
 C        -0.157655         0.237427        -0.184865
 C         1.391563         0.101137        -0.240834
 O         2.191693        -1.071189         0.087711
 C         2.493858        -0.207785        -1.139214
 C         3.390959         0.824786        -0.550726
 C         3.645083         2.065311        -1.444327
 C         2.475928         2.962484        -1.109885
 O         2.047538         2.545654         0.280608
 C         2.259988         1.130359         0.526418
 H        -0.547571        -0.153825         0.799276
 H        -0.360194         1.317366        -0.194462
 H        -0.569527        -0.387404        -0.997903
 H         2.591126        -0.718593        -2.030965
 H         4.312153         0.355310        -0.221935
 H         4.588921         2.513832        -1.223135
 H         3.613184         1.795505        -2.542011
 H         2.766478         3.982530        -0.973679
 H         1.614486         2.847481        -1.830926
 H         2.403802         0.936837         1.677166
