19
Iteration:   703
 C        -0.057759         0.218103        -0.268482
 C         1.444475         0.187232         0.026792
 O         2.069293        -1.129435        -0.017153
 C         2.481972        -0.197011        -1.106490
 C         3.457878         0.856323        -0.525583
 C         3.710874         2.097501        -1.389876
 C         2.319691         2.918124        -1.068770
 O         1.952472         2.443948         0.211242
 C         2.450401         1.227700         0.507795
 H        -0.799184         0.334829         0.546160
 H        -0.346497         1.102547        -0.948879
 H        -0.346712        -0.746634        -0.746283
 H         2.113474        -0.646065        -2.045093
 H         4.480050         0.548449        -0.314117
 H         4.653584         2.566821        -1.128525
 H         3.707626         1.855987        -2.506148
 H         2.466204         4.019052        -1.199255
 H         1.634517         2.590255        -1.830809
 H         2.633853         1.088029         1.600894
