19
Iteration:  3486charge 0 multiplicity 1
 C        -0.139090        -0.085728        -0.268189
 C         1.359053         0.109796        -0.101925
 O         2.188883        -1.131844         0.095766
 C         2.478816        -0.219677        -0.956001
 C         3.435665         0.874651        -0.596466
 C         3.532456         2.059025        -1.557737
 C         2.616242         3.144744        -0.991129
 O         1.970470         2.601601         0.191016
 C         2.282074         1.279523         0.523884
 H        -0.676012        -0.431554         0.663899
 H        -0.673783         0.621528        -0.891310
 H        -0.029251        -0.902358        -0.954066
 H         2.467796        -0.584991        -1.967681
 H         4.456586         0.374394        -0.459419
 H         4.593379         2.538724        -1.649038
 H         3.344926         1.719800        -2.578327
 H         3.209918         4.061356        -0.725592
 H         1.816165         3.587397        -1.612483
 H         2.390690         1.000162         1.595689
