19
Iteration:  4531charge 0 multiplicity 1
 C        -0.002017         0.306652        -0.100407
 C         1.504120         0.149634        -0.095802
 O         2.128348        -1.130961        -0.205915
 C         2.522019        -0.091637        -1.115659
 C         3.531642         0.892640        -0.445229
 C         3.656013         2.068407        -1.349022
 C         2.306976         2.774508        -1.162792
 O         1.762249         2.435546         0.252621
 C         2.390392         1.169269         0.553505
 H        -0.422455        -0.055475         0.764347
 H        -0.332483         1.415537        -0.280983
 H        -0.327002        -0.270267        -0.936221
 H         2.448226        -0.414427        -2.102123
 H         4.479995         0.479009        -0.148176
 H         4.492310         2.790334        -1.025982
 H         3.899153         1.779948        -2.411519
 H         2.597471         3.839224        -1.114779
 H         1.535131         2.492201        -1.952167
 H         2.697834         1.273541         1.673719
