19
Iteration:  4907charge 0 multiplicity 1
 C        -0.080127        -0.007551        -0.070308
 C         1.441445         0.064283        -0.125160
 O         2.149665        -1.194376         0.039071
 C         2.391205        -0.235963        -1.174309
 C         3.461830         0.835064        -0.599628
 C         3.704647         2.198208        -1.421494
 C         2.574576         3.182370        -0.908493
 O         1.810825         2.485738         0.045822
 C         2.336801         1.223746         0.457237
 H        -0.587763        -0.371421         0.974793
 H        -0.367801         1.044838        -0.122492
 H        -0.546363        -0.532864        -0.879494
 H         2.313165        -0.523052        -2.226050
 H         4.350944         0.413952        -0.142177
 H         4.680729         2.724960        -1.268214
 H         3.762097         1.981265        -2.457029
 H         3.181081         3.992617        -0.581143
 H         1.850026         3.637668        -1.524012
 H         2.261208         1.282578         1.596107
