19
Iteration:  3682charge 0 multiplicity 1
 C        -0.062396        -0.051492        -0.100806
 C         1.433194         0.009587        -0.006940
 O         2.245663        -1.112909         0.066562
 C         2.430080        -0.285852        -1.145209
 C         3.398048         0.815413        -0.613530
 C         3.524591         2.066797        -1.525036
 C         2.821682         3.231618        -0.752869
 O         1.722726         2.530722        -0.104909
 C         2.225298         1.315191         0.460368
 H        -0.584404         0.010045         0.958118
 H        -0.379513         0.915409        -0.643629
 H        -0.352313        -0.961139        -0.586804
 H         2.328894        -0.757741        -2.151921
 H         4.403359         0.577659        -0.150889
 H         4.561232         2.468723        -1.524013
 H         3.263307         2.054262        -2.595659
 H         3.494528         3.714291        -0.032654
 H         2.335569         3.951155        -1.395093
 H         2.414823         1.564058         1.564768
