19
Iteration:  2732charge 0 multiplicity 1
 C        -0.029119         0.085898        -0.152937
 C         1.389406         0.022640        -0.174518
 O         2.192895        -1.128222         0.092153
 C         2.539859        -0.254891        -1.023124
 C         3.411120         0.879425        -0.551787
 C         3.574383         2.077613        -1.455361
 C         2.682250         3.129883        -0.911922
 O         1.658368         2.523485        -0.007851
 C         2.349757         1.223875         0.470748
 H        -0.413967        -0.584906         0.607253
 H        -0.465883         1.071060        -0.016778
 H        -0.343402        -0.240934        -1.128266
 H         2.568314        -0.784655        -1.930124
 H         4.348790         0.467907        -0.076485
 H         4.688324         2.527398        -1.534360
 H         3.230922         1.915912        -2.578917
 H         3.327407         3.904496        -0.379695
 H         2.158890         3.657117        -1.670157
 H         2.491711         1.208395         1.571793
