19
Iteration:  1353charge 0 multiplicity 1
 C        -0.088484        -0.026427        -0.156201
 C         1.366738         0.147556        -0.037037
 O         2.147628        -1.130780         0.038216
 C         2.417036        -0.235005        -1.098095
 C         3.449103         0.813196        -0.540965
 C         3.716209         2.158385        -1.365998
 C         2.561220         3.049553        -1.068779
 O         1.854478         2.550618         0.111207
 C         2.356755         1.260691         0.447635
 H        -0.625126        -0.254248         0.838843
 H        -0.641022         0.908732        -0.571587
 H        -0.351045        -0.796507        -0.924097
 H         2.336165        -0.623657        -2.173001
 H         4.405435         0.528162        -0.026563
 H         4.732944         2.469835        -1.087314
 H         3.823111         2.114347        -2.412745
 H         2.715410         4.117018        -1.094674
 H         1.827674         2.854835        -1.992490
 H         2.630456         1.391434         1.518930
