19
Iteration:  4211charge 0 multiplicity 1
 C        -0.091420         0.242895        -0.231493
 C         1.419470         0.053111        -0.135174
 O         2.207871        -1.182955        -0.008485
 C         2.534773        -0.219078        -1.030451
 C         3.458328         0.832475        -0.560053
 C         3.571573         2.116355        -1.434138
 C         2.453826         3.067914        -0.961179
 O         1.830762         2.450403         0.189164
 C         2.382715         1.177718         0.445100
 H        -0.485894        -0.129600         0.737482
 H        -0.275754         1.329573        -0.449309
 H        -0.558036        -0.428776        -1.091037
 H         2.610494        -0.615700        -2.004699
 H         4.419111         0.575927        -0.146618
 H         4.477491         2.629100        -1.050003
 H         3.668893         2.111785        -2.572946
 H         2.601377         4.070705        -0.591076
 H         1.618807         3.126964        -1.721681
 H         2.785316         1.226300         1.517066
