19
Iteration:  2233charge 0 multiplicity 1
 C        -0.026661         0.133095        -0.224132
 C         1.490477         0.123080        -0.187273
 O         2.149854        -1.095898         0.035519
 C         2.441548        -0.259405        -1.182582
 C         3.405945         0.879439        -0.510310
 C         3.678535         2.146199        -1.299008
 C         2.385615         2.931714        -1.157366
 O         1.944045         2.512974         0.254488
 C         2.321950         1.223648         0.527531
 H        -0.457361         0.240623         0.806616
 H        -0.352606         1.063970        -0.800817
 H        -0.344477        -0.778423        -0.702069
 H         2.359998        -0.611466        -2.213299
 H         4.232632         0.325668        -0.117327
 H         4.403290         2.631215        -0.730463
 H         3.954600         1.963344        -2.340302
 H         2.444264         4.066244        -1.269250
 H         1.572351         2.562066        -1.847744
 H         2.551461         1.173536         1.604893
