19
Iteration:  4762charge 0 multiplicity 1
 C        -0.041662        -0.126298        -0.315215
 C         1.416851         0.066717        -0.159361
 O         2.129735        -1.077294         0.155741
 C         2.552750        -0.313662        -1.035978
 C         3.382405         0.888822        -0.621816
 C         3.383765         2.085727        -1.669318
 C         2.813428         3.198415        -0.726207
 O         1.857808         2.608702         0.159574
 C         2.279413         1.276218         0.425500
 H        -0.475809        -0.399918         0.730268
 H        -0.604953         0.825770        -0.441545
 H        -0.442886        -0.853949        -1.084181
 H         2.659817        -1.031042        -1.907203
 H         4.359843         0.576109        -0.265151
 H         4.338841         2.300915        -2.141921
 H         2.674086         1.819037        -2.448727
 H         3.713438         3.604417        -0.110790
 H         2.271353         4.111912        -1.052995
 H         2.491669         1.082100         1.535999
