19
Iteration:   910
 C        -0.043665         0.161100        -0.386561
 C         1.451876         0.138270        -0.075673
 O         2.104473        -1.132658         0.059044
 C         2.434537        -0.272592        -1.071167
 C         3.411103         0.800522        -0.549427
 C         3.598233         2.120627        -1.366138
 C         2.307156         2.903562        -1.064305
 O         2.046425         2.621191         0.291498
 C         2.469508         1.257045         0.505806
 H        -0.548026         0.435053         0.497339
 H        -0.300208         0.793477        -1.256576
 H        -0.391788        -0.818495        -0.657320
 H         2.327833        -0.670814        -2.071800
 H         4.385396         0.347932        -0.284466
 H         4.456274         2.636066        -1.114612
 H         3.763539         1.904013        -2.421111
 H         2.234041         3.982313        -1.267975
 H         1.489298         2.588103        -1.836263
 H         2.861195         1.129871         1.536185
