19
Iteration:  4463
 C        -0.119844         0.035348        -0.377747
 C         1.385977         0.158150        -0.234679
 O         2.162834        -1.019087         0.139368
 C         2.415817        -0.251967        -1.098188
 C         3.497679         0.826012        -0.672421
 C         3.581450         2.198123        -1.364233
 C         2.321695         2.988700        -1.058436
 O         2.108926         2.547118         0.418090
 C         2.389460         1.176190         0.470867
 H        -0.593528        -0.113333         0.565797
 H        -0.662151         0.929851        -0.887501
 H        -0.293486        -0.822598        -1.046833
 H         2.613914        -0.957650        -1.967376
 H         4.530037         0.523314        -0.310897
 H         4.580547         2.581833        -1.126074
 H         3.679350         2.018059        -2.477777
 H         2.253016         4.098434        -0.922276
 H         1.365029         2.496305        -1.537337
 H         2.751373         0.683944         1.450219
