19
Iteration:  2148
 C        -0.087176        -0.009681        -0.163856
 C         1.353263         0.179709        -0.094838
 O         2.183997        -1.097651        -0.133675
 C         2.473752        -0.082324        -1.067816
 C         3.434128         0.931128        -0.391266
 C         3.650796         2.008305        -1.344844
 C         2.402727         2.862306        -1.179309
 O         1.999940         2.617599         0.179614
 C         2.324921         1.217675         0.526994
 H        -0.461482        -0.545123         0.761211
 H        -0.621687         1.006670        -0.153259
 H        -0.248717        -0.583638        -1.117273
 H         2.442472        -0.332683        -2.159292
 H         4.312559         0.413333         0.096015
 H         4.567332         2.625425        -0.986402
 H         3.943526         1.762865        -2.355821
 H         2.569160         3.954076        -1.380081
 H         1.626597         2.518843        -1.838270
 H         2.532978         1.025970         1.605863
