19
Iteration:  2999charge 0 multiplicity 1
 C        -0.073221         0.053081        -0.222438
 C         1.464030         0.104688        -0.133795
 O         2.196182        -1.153538         0.068297
 C         2.499102        -0.230972        -1.103608
 C         3.432506         0.900198        -0.535675
 C         3.618298         2.013029        -1.472628
 C         2.573720         3.125181        -0.924033
 O         1.806466         2.498962         0.125725
 C         2.281890         1.279794         0.479884
 H        -0.450501         0.106291         0.803555
 H        -0.496595         0.957138        -0.661046
 H        -0.528062        -0.836782        -0.524543
 H         2.326889        -0.715325        -2.064743
 H         4.406553         0.609704        -0.231537
 H         4.642271         2.405069        -1.493432
 H         3.372907         1.866764        -2.662302
 H         3.008318         4.074328        -0.600175
 H         1.763593         3.463238        -1.619181
 H         2.588565         1.042575         1.527251
