19
Iteration:   811
 C        -0.136471         0.119451        -0.199597
 C         1.473242         0.098986         0.019185
 O         2.184314        -1.124589        -0.018827
 C         2.446797        -0.177876        -1.087568
 C         3.406210         0.812477        -0.562202
 C         3.750404         2.085368        -1.419295
 C         2.453986         2.919319        -1.149976
 O         1.940589         2.607265         0.181125
 C         2.277513         1.237763         0.553875
 H        -0.539832        -0.521589         0.480334
 H        -0.594510         1.099417        -0.114428
 H        -0.397632        -0.161142        -1.184477
 H         2.150290        -0.477692        -2.061295
 H         4.275704         0.258593        -0.187169
 H         4.613969         2.512272        -0.972049
 H         3.881356         2.007391        -2.500123
 H         2.769011         3.987802        -1.068003
 H         1.583779         2.664878        -1.881194
 H         2.436447         1.206020         1.670834
