19
Iteration:  3630
 C        -0.083692        -0.245010        -0.121321
 C         1.319562         0.139511        -0.239156
 O         2.192669        -1.080813         0.123657
 C         2.541618        -0.342098        -1.023764
 C         3.305299         0.896728        -0.635185
 C         3.461797         1.979201        -1.545301
 C         2.904238         3.266840        -0.756626
 O         1.813523         2.686730         0.086848
 C         2.228683         1.301776         0.340068
 H        -0.306284        -0.642086         0.919819
 H        -0.719170         0.666194        -0.256564
 H        -0.166665        -0.994879        -0.851891
 H         2.665809        -0.925377        -1.998212
 H         4.225845         0.508257        -0.077236
 H         4.527879         2.280259        -1.820556
 H         3.039262         1.790490        -2.467641
 H         3.729446         3.861994        -0.250836
 H         2.415758         3.888307        -1.505609
 H         2.581625         1.360734         1.343024
