19
Iteration:  3202
 C         0.075620         0.254869        -0.225517
 C         1.475951         0.126573        -0.121021
 O         2.175534        -1.180815         0.068650
 C         2.507392        -0.266047        -1.146189
 C         3.405164         0.841808        -0.578395
 C         3.604566         2.121595        -1.331008
 C         2.316052         2.888283        -1.185063
 O         1.834227         2.557074         0.279293
 C         2.396583         1.206116         0.534286
 H        -0.427934         0.352869         0.742885
 H        -0.121908         1.113184        -0.789773
 H        -0.456476        -0.520178        -0.863903
 H         2.457956        -0.500446        -2.243369
 H         4.449766         0.520116        -0.191551
 H         4.541823         2.619228        -0.944018
 H         3.652755         2.108554        -2.386021
 H         2.627092         3.946772        -1.322201
 H         1.528367         2.539419        -1.923133
 H         2.448261         1.159633         1.627254
