19
Iteration:  3559charge 0 multiplicity 1
 C         0.019776         0.173077        -0.270950
 C         1.478743         0.052049        -0.106830
 O         2.176753        -1.145820         0.217664
 C         2.596186        -0.302738        -1.037219
 C         3.515458         0.832920        -0.651393
 C         3.332484         2.064963        -1.596549
 C         2.711595         3.187791        -0.756151
 O         1.698011         2.484586         0.034062
 C         2.269649         1.209581         0.421074
 H        -0.487828         0.394583         0.736074
 H        -0.154725         1.156517        -0.726019
 H        -0.558855        -0.733066        -0.781336
 H         2.827749        -0.980146        -1.825271
 H         4.521907         0.686172        -0.317461
 H         4.287711         2.190961        -2.013825
 H         2.666534         2.039736        -2.520000
 H         3.336932         3.726122        -0.062461
 H         2.227028         3.901577        -1.462187
 H         2.477323         1.022216         1.551875
