19
Iteration:   365charge 0 multiplicity 1
 C        -0.152661         0.232804        -0.200658
 C         1.396780         0.172368        -0.214065
 O         2.204840        -1.029841         0.007428
 C         2.488742        -0.253883        -1.135541
 C         3.480426         0.758401        -0.578476
 C         3.589318         2.011582        -1.350950
 C         2.350888         2.899649        -1.043719
 O         2.081125         2.588605         0.272477
 C         2.348260         1.198410         0.508633
 H        -0.498389        -0.210536         0.734546
 H        -0.567539         1.259055        -0.315907
 H        -0.616990        -0.399092        -0.981795
 H         2.457096        -0.828889        -2.006985
 H         4.462123         0.256578        -0.378836
 H         4.464615         2.633554        -1.112104
 H         3.778086         1.832965        -2.428249
 H         2.370110         3.990704        -0.991321
 H         1.484144         2.753481        -1.726621
 H         2.313617         0.987857         1.539030
