19
Iteration:   213
 C        -0.157455         0.121327        -0.170546
 C         1.370960         0.179376        -0.113306
 O         2.227438        -1.004829        -0.017997
 C         2.405663        -0.192665        -1.157866
 C         3.343525         0.794754        -0.499907
 C         3.703545         2.070594        -1.400652
 C         2.470029         2.888593        -1.144925
 O         2.052429         2.559695         0.267582
 C         2.330920         1.178310         0.521116
 H        -0.668393        -0.382123         0.653633
 H        -0.700357         1.065888        -0.144933
 H        -0.531836        -0.430213        -1.040202
 H         2.443968        -0.522699        -2.167357
 H         4.320478         0.268875        -0.152139
 H         4.586396         2.618495        -1.091704
 H         3.759616         1.730439        -2.474081
 H         2.692533         3.944851        -1.071825
 H         1.647127         2.652198        -1.818850
 H         2.606032         1.142111         1.540317
