19
Iteration:  4100charge 0 multiplicity 1
 C        -0.048787         0.117123        -0.385767
 C         1.402577         0.094605        -0.171618
 O         2.154555        -1.059615         0.158221
 C         2.496748        -0.239677        -1.100438
 C         3.490489         0.845463        -0.584609
 C         3.523702         2.118278        -1.392720
 C         2.269926         3.028259        -0.973855
 O         2.112924         2.537492         0.319540
 C         2.355688         1.159302         0.417985
 H        -0.696940         0.317064         0.564835
 H        -0.304532         0.823871        -1.115667
 H        -0.251202        -0.894506        -0.867277
 H         2.419518        -0.813524        -2.116542
 H         4.466069         0.509653        -0.226273
 H         4.489749         2.709330        -1.279021
 H         3.342625         1.877050        -2.479722
 H         2.432352         4.114732        -0.850922
 H         1.604825         2.773659        -1.821682
 H         2.573808         0.902743         1.483573
