19
Iteration:   153charge 0 multiplicity 1
 C        -0.069269         0.300661        -0.146789
 C         1.411781         0.104073        -0.167631
 O         2.134529        -1.103855         0.028283
 C         2.485642        -0.152346        -1.147790
 C         3.537285         0.766927        -0.534268
 C         3.670515         2.078934        -1.378465
 C         2.342767         2.824685        -1.076796
 O         1.987754         2.518691         0.194246
 C         2.261893         1.192521         0.499925
 H        -0.299398         0.224784         0.932302
 H        -0.168329         1.347001        -0.455408
 H        -0.601096        -0.419295        -0.770514
 H         2.557515        -0.432938        -2.240425
 H         4.400925         0.221356        -0.323138
 H         4.455712         2.791927        -1.046849
 H         3.860029         1.937800        -2.436498
 H         2.597032         3.910962        -0.962731
 H         1.513758         2.798504        -1.829591
 H         2.274236         1.034757         1.625113
