19
Iteration:  3013charge 0 multiplicity 1
 C        -0.052655         0.057605        -0.122416
 C         1.373555         0.132286        -0.165405
 O         2.204702        -1.113386        -0.011728
 C         2.532392        -0.288165        -1.064893
 C         3.443166         0.780710        -0.521596
 C         3.563875         2.121156        -1.448167
 C         2.583625         3.138284        -0.950661
 O         1.794588         2.569259         0.121342
 C         2.322207         1.200160         0.476149
 H        -0.392665         0.201000         0.904984
 H        -0.456205         0.786199        -0.951769
 H        -0.276356        -0.916262        -0.582400
 H         2.690956        -0.642075        -2.083087
 H         4.311660         0.244814         0.032237
 H         4.606706         2.423162        -1.602467
 H         3.190559         1.692540        -2.434855
 H         3.073254         4.002153        -0.522595
 H         1.947274         3.281129        -1.927968
 H         2.351421         1.374088         1.607610
