19
Iteration:  2032charge 0 multiplicity 1
 C        -0.003287         0.217593        -0.347096
 C         1.454849         0.192131        -0.177153
 O         2.093045        -1.153988         0.048177
 C         2.638967        -0.170315        -0.983195
 C         3.512260         0.864609        -0.526758
 C         3.571838         2.018427        -1.498504
 C         2.367802         2.907203        -1.058489
 O         1.842061         2.508462         0.310163
 C         2.362598         1.237707         0.531380
 H        -0.548978         0.398155         0.619073
 H        -0.373342         0.900160        -1.173197
 H        -0.463296        -0.798069        -0.779887
 H         2.680298        -0.712026        -1.921170
 H         4.469501         0.565916        -0.043873
 H         4.452113         2.662085        -1.602510
 H         3.427569         1.700407        -2.520052
 H         2.676636         3.900806        -0.880150
 H         1.374699         2.942966        -1.641947
 H         2.715537         1.002565         1.567163
