19
Iteration:   288
 C        -0.036749         0.258955        -0.243872
 C         1.424800         0.103409        -0.031419
 O         2.206892        -1.105703        -0.053956
 C         2.311376        -0.097909        -1.142459
 C         3.483843         0.810892        -0.545002
 C         3.682148         2.037399        -1.405748
 C         2.418701         2.840441        -1.086478
 O         1.958147         2.523619         0.232698
 C         2.372249         1.188097         0.661314
 H        -0.670759         0.481561         0.597429
 H        -0.120976         1.203997        -0.813357
 H        -0.544147        -0.517957        -0.832348
 H         2.215961        -0.409884        -2.210454
 H         4.368654         0.191935        -0.359121
 H         4.523625         2.719726        -1.468576
 H         3.405370         1.839520        -2.443114
 H         2.399972         3.955917        -1.091210
 H         1.586803         2.481662        -1.775126
 H         2.559467         1.111722         1.698647
