19
Iteration:  1761charge 0 multiplicity 1
 C         0.013075         0.180240        -0.480268
 C         1.420567         0.058198        -0.112348
 O         2.198763        -1.124040         0.168916
 C         2.448740        -0.332611        -1.009906
 C         3.453823         0.858436        -0.555771
 C         3.552823         2.086434        -1.417152
 C         2.290389         2.989218        -1.031516
 O         2.002297         2.591253         0.276151
 C         2.378469         1.236854         0.458974
 H        -0.608570        -0.110735         0.347582
 H         0.062425         1.237490        -0.613231
 H        -0.474845        -0.226901        -1.327598
 H         2.340008        -0.866733        -2.022657
 H         4.432310         0.753801        -0.156930
 H         4.500066         2.473571        -1.044829
 H         3.511301         1.797872        -2.558526
 H         2.495240         4.034046        -1.137700
 H         1.454457         2.832913        -1.734812
 H         2.613308         1.119140         1.546162
