19
Iteration:  1286charge 0 multiplicity 1
 C        -0.051643         0.086277        -0.066768
 C         1.421722         0.188556        -0.257571
 O         2.057126        -1.035657        -0.077710
 C         2.614403        -0.181175        -1.109107
 C         3.501248         0.806156        -0.415003
 C         3.642352         2.114394        -1.287656
 C         2.345944         2.870764        -1.279066
 O         1.969092         2.557281         0.180779
 C         2.336988         1.210136         0.554946
 H        -0.188435         0.038106         1.081632
 H        -0.786532         0.859554        -0.476834
 H        -0.660158        -0.771444        -0.449481
 H         2.567997        -0.569340        -2.177862
 H         4.424367         0.343740         0.074874
 H         4.287528         2.807555        -0.692099
 H         3.990455         2.050651        -2.252555
 H         2.383918         3.979092        -1.345012
 H         1.541795         2.480118        -2.005807
 H         2.523810         0.744238         1.540269
