19
Iteration:   482
 C        -0.028438         0.125709        -0.144942
 C         1.410683         0.220442        -0.076452
 O         2.002196        -1.124425        -0.068747
 C         2.403883        -0.217913        -1.133612
 C         3.439793         0.835073        -0.555373
 C         3.700010         2.124441        -1.354631
 C         2.413197         2.901363        -1.102400
 O         2.007196         2.518064         0.244009
 C         2.439988         1.249867         0.491515
 H        -0.611384         0.176349         0.792092
 H        -0.487531         0.935368        -0.788784
 H        -0.406092        -0.801475        -0.625090
 H         2.444725        -0.652790        -2.188378
 H         4.316706         0.296982        -0.231710
 H         4.541361         2.549220        -0.749499
 H         4.040094         2.184324        -2.342257
 H         2.364903         4.004043        -1.185356
 H         1.752580         2.412372        -1.907235
 H         2.776589         1.175014         1.564115
