19
Iteration:   940
 C        -0.020783         0.169785        -0.321576
 C         1.425452         0.227292        -0.083561
 O         2.145838        -1.031193        -0.025561
 C         2.535083        -0.188386        -1.044163
 C         3.489677         0.832516        -0.476909
 C         3.584962         1.987553        -1.509684
 C         2.376099         2.879251        -1.037037
 O         1.978339         2.519558         0.266783
 C         2.303405         1.224187         0.559073
 H        -0.632452         0.054820         0.665006
 H        -0.398043         1.148625        -0.820112
 H        -0.402589        -0.695216        -0.887605
 H         2.586126        -0.615764        -1.993314
 H         4.390895         0.316055        -0.139591
 H         4.592586         2.457583        -1.687653
 H         3.299121         1.521582        -2.469126
 H         2.391931         3.968670        -0.867018
 H         1.537636         2.810328        -1.707282
 H         2.560188         1.081525         1.649932
