19
Iteration:  3920
 C        -0.085449        -0.053150        -0.173301
 C         1.421106         0.134511        -0.101631
 O         2.178863        -1.146715         0.084195
 C         2.480406        -0.266028        -1.075635
 C         3.400663         0.821445        -0.598877
 C         3.566874         2.051243        -1.560729
 C         2.649791         3.232639        -0.916826
 O         1.786256         2.588766         0.134456
 C         2.335532         1.249016         0.507197
 H        -0.607180        -0.328483         0.763406
 H        -0.646599         0.798659        -0.762737
 H        -0.229589        -1.021757        -0.767155
 H         2.425524        -0.822189        -2.020217
 H         4.389095         0.471548        -0.235834
 H         4.590638         2.442002        -1.518988
 H         3.470824         1.834858        -2.649045
 H         3.442755         3.895613        -0.533125
 H         2.038097         3.869421        -1.614624
 H         2.682592         1.197105         1.510688
