19
Iteration:  4899charge 0 multiplicity 1
 C        -0.024541         0.031720        -0.049061
 C         1.377515         0.050346        -0.124336
 O         2.181542        -1.142221         0.040552
 C         2.427228        -0.167228        -1.154973
 C         3.455710         0.800506        -0.586803
 C         3.671130         2.184205        -1.398305
 C         2.618732         3.221664        -0.899252
 O         1.770385         2.463566         0.016700
 C         2.272153         1.147526         0.400715
 H        -0.250108        -0.278799         0.964707
 H        -0.351525         1.143990        -0.128148
 H        -0.524892        -0.547992        -0.829041
 H         2.285874        -0.838600        -2.059861
 H         4.357744         0.255191        -0.205573
 H         4.689780         2.502703        -1.152200
 H         3.563640         2.109274        -2.550485
 H         3.097152         4.101442        -0.358900
 H         1.988196         3.605086        -1.724318
 H         2.564062         1.020047         1.493727
