19
Iteration:  4262charge 0 multiplicity 1
 C        -0.200068         0.096849        -0.107349
 C         1.396475         0.086981        -0.130625
 O         2.181475        -1.119351        -0.169985
 C         2.495843        -0.158444        -1.175192
 C         3.498134         0.842447        -0.514272
 C         3.729378         2.143794        -1.212917
 C         2.305994         2.808456        -1.157869
 O         1.975602         2.612919         0.250802
 C         2.415242         1.243550         0.514771
 H        -0.584042        -0.037443         0.951249
 H        -0.499739         1.001038        -0.469567
 H        -0.587796        -0.605825        -0.793697
 H         2.537953        -0.339328        -2.253368
 H         4.393712         0.313191        -0.162084
 H         4.315405         2.918290        -0.772484
 H         4.087314         1.951876        -2.184785
 H         2.223093         3.874552        -1.355084
 H         1.482307         2.448171        -1.756737
 H         2.665314         1.258142         1.532059
