19
Iteration:  1852
 C        -0.149500         0.079811        -0.169144
 C         1.418051         0.086915        -0.057094
 O         2.175080        -1.136140        -0.079517
 C         2.427651        -0.138032        -1.144452
 C         3.468782         0.869125        -0.452360
 C         3.733274         2.106334        -1.269413
 C         2.396945         2.899745        -1.182754
 O         1.965111         2.617893         0.138672
 C         2.357273         1.211315         0.544394
 H        -0.787548        -0.114920         0.692493
 H        -0.408644         0.943641        -0.802209
 H        -0.335530        -0.743908        -0.750641
 H         2.572090        -0.581299        -2.070379
 H         4.353166         0.332790        -0.091106
 H         4.499899         2.748613        -0.756218
 H         3.894544         2.059115        -2.300624
 H         2.226187         3.990725        -1.250836
 H         1.705787         2.501496        -1.858204
 H         2.444795         1.219314         1.639917
