19
Iteration:  2716
 C        -0.032378         0.113101        -0.156290
 C         1.482827         0.135836        -0.118613
 O         2.184505        -1.150328         0.062808
 C         2.571354        -0.322340        -1.084081
 C         3.509920         0.826443        -0.493751
 C         3.565730         2.036655        -1.486515
 C         2.579382         3.154112        -0.858587
 O         1.732209         2.470505        -0.016969
 C         2.203796         1.339070         0.417034
 H        -0.344806        -0.582512         0.661020
 H        -0.314889         1.165025         0.047857
 H        -0.604391        -0.275214        -1.053203
 H         2.489973        -0.652764        -2.189341
 H         4.434014         0.630542         0.039949
 H         4.562913         2.251201        -1.503257
 H         3.399496         1.579600        -2.403078
 H         3.110824         3.826176        -0.255793
 H         1.899066         3.701733        -1.596447
 H         2.361182         1.278640         1.511437
