19
Iteration:   493charge 0 multiplicity 1
 C        -0.029186         0.133029        -0.183388
 C         1.442643         0.252702         0.005133
 O         2.025280        -1.058164        -0.132046
 C         2.346979        -0.164135        -1.082533
 C         3.438466         0.759966        -0.594251
 C         3.724189         2.122115        -1.310403
 C         2.409308         2.806734        -1.098896
 O         1.948532         2.522970         0.198678
 C         2.472930         1.227533         0.545239
 H        -0.588729         0.128011         0.762728
 H        -0.331554         0.965002        -0.877362
 H        -0.019957        -0.855249        -0.732879
 H         2.250814        -0.455693        -2.193166
 H         4.407124         0.432960        -0.260055
 H         4.624806         2.641840        -0.900750
 H         3.817703         1.836153        -2.315332
 H         2.431467         3.915783        -1.163672
 H         1.516595         2.489363        -1.716096
 H         2.876062         1.255531         1.590400
