19
Iteration:  1104charge 0 multiplicity 1
 C        -0.102248         0.179782        -0.207379
 C         1.398841         0.087412        -0.111589
 O         2.258998        -1.085594         0.047258
 C         2.400441        -0.274554        -1.143331
 C         3.498673         0.798428        -0.682507
 C         3.727414         2.136910        -1.256396
 C         2.397600         2.932854        -1.079843
 O         1.877902         2.590056         0.200528
 C         2.285710         1.201347         0.501227
 H        -0.545666         0.401334         0.754713
 H        -0.264372         1.007211        -0.936348
 H        -0.512731        -0.768784        -0.486699
 H         2.386531        -0.807390        -2.109959
 H         4.385685         0.437571        -0.179762
 H         4.497646         2.727602        -0.682133
 H         3.998202         2.126245        -2.354498
 H         2.483266         4.002010        -1.173763
 H         1.820703         2.493677        -1.997178
 H         2.516413         1.007584         1.590681
