19
Iteration:  4232
 C         0.027725         0.240695        -0.181857
 C         1.499810         0.115547        -0.052882
 O         2.138665        -1.114639        -0.019033
 C         2.418626        -0.274727        -1.191084
 C         3.502424         0.860694        -0.611903
 C         3.711764         2.194293        -1.311288
 C         2.386097         2.955502        -1.041223
 O         1.777953         2.434231         0.188879
 C         2.361927         1.171820         0.553711
 H        -0.586057        -0.112425         0.679491
 H        -0.156601         1.244312        -0.523620
 H        -0.171587        -0.545335        -1.012874
 H         2.242278        -0.463829        -2.203992
 H         4.382948         0.276243        -0.408079
 H         4.494695         2.926028        -1.138030
 H         3.731265         1.936173        -2.418559
 H         2.597030         3.998935        -0.864771
 H         1.653427         2.778412        -1.830470
 H         2.476924         1.120214         1.675639
