19
Iteration:  1131
 C        -0.083669         0.053813        -0.296473
 C         1.420419         0.090834        -0.066930
 O         2.096913        -1.207917         0.064898
 C         2.423018        -0.203881        -1.090566
 C         3.484094         0.848770        -0.573982
 C         3.627738         2.159469        -1.355752
 C         2.399289         3.030751        -1.154416
 O         2.012077         2.585641         0.218078
 C         2.376857         1.242890         0.560114
 H        -0.776059         0.060280         0.602617
 H        -0.361045         0.884435        -0.982141
 H        -0.214043        -0.992317        -0.753658
 H         2.424545        -0.554943        -2.141780
 H         4.468958         0.499896        -0.209694
 H         4.422773         2.769609        -0.986206
 H         3.804411         1.941954        -2.392121
 H         2.686386         4.116115        -1.058487
 H         1.674518         2.879618        -1.855704
 H         2.585932         1.122024         1.622045
