19
Iteration:  1000charge 0 multiplicity 1
 C        -0.148750         0.101390        -0.271368
 C         1.418416         0.152727        -0.157283
 O         2.116810        -1.036471         0.145394
 C         2.472375        -0.209647        -1.080590
 C         3.532483         0.861405        -0.622146
 C         3.699679         2.145393        -1.342952
 C         2.360397         2.842052        -1.110464
 O         1.954882         2.521018         0.267196
 C         2.360675         1.214802         0.443071
 H        -0.405474        -0.491474         0.559923
 H        -0.439141         1.084399         0.033346
 H        -0.533019        -0.079589        -1.288322
 H         2.256901        -0.845611        -2.029198
 H         4.505957         0.337168        -0.453731
 H         4.464070         2.800977        -0.963085
 H         3.986552         1.971892        -2.375985
 H         2.587782         3.983222        -1.189079
 H         1.632686         2.611152        -2.001507
 H         2.685751         1.023581         1.446088
