19
Iteration:  1652charge 0 multiplicity 1
 C        -0.097710         0.058326        -0.148589
 C         1.392764         0.106065        -0.067367
 O         2.170749        -1.096994         0.032407
 C         2.396954        -0.211420        -1.110141
 C         3.492164         0.849740        -0.503038
 C         3.763265         2.172621        -1.264923
 C         2.439471         2.919316        -1.118898
 O         1.858018         2.486794         0.045947
 C         2.373834         1.272704         0.476294
 H        -0.855050         0.058821         0.759760
 H        -0.393546         1.083849        -0.599311
 H        -0.361380        -0.735739        -0.921922
 H         2.273315        -0.529768        -2.218793
 H         4.424123         0.371198        -0.251119
 H         4.654300         2.641023        -0.845046
 H         3.851713         2.094003        -2.391765
 H         2.713434         3.956395        -0.944341
 H         1.679430         2.893409        -1.932092
 H         2.656980         1.360677         1.561666
