19
Iteration:  1609
 C        -0.146817        -0.067733        -0.004892
 C         1.411639         0.085754        -0.201773
 O         2.179130        -1.087032        -0.043243
 C         2.485449        -0.189026        -1.118338
 C         3.455833         0.856785        -0.416368
 C         3.758793         2.070515        -1.330887
 C         2.623844         3.051370        -1.049418
 O         1.830593         2.599962         0.018759
 C         2.196162         1.287344         0.396088
 H        -0.209034        -0.449439         1.089916
 H        -0.871588         0.803620         0.061233
 H        -0.682550        -0.744025        -0.702610
 H         2.509384        -0.724550        -2.130248
 H         4.197652         0.477047         0.260693
 H         4.670063         2.619700        -1.336539
 H         3.750403         1.691184        -2.298003
 H         3.020381         4.044056        -0.762868
 H         1.987406         3.119739        -1.984388
 H         2.285596         1.264097         1.520273
