19
Iteration:  4626
 C        -0.149143        -0.127090        -0.188666
 C         1.400628         0.024754        -0.110832
 O         2.130102        -1.145175        -0.093679
 C         2.471060        -0.208355        -1.104475
 C         3.379906         0.872924        -0.514770
 C         3.605298         2.047665        -1.404007
 C         2.570626         3.103471        -0.965261
 O         1.992415         2.655647         0.209683
 C         2.364399         1.383895         0.509686
 H        -0.422594        -0.259451         0.866134
 H        -0.603769         0.881394        -0.667031
 H        -0.447555        -1.006489        -0.723613
 H         2.557503        -0.512667        -2.097495
 H         4.371516         0.446326        -0.199308
 H         4.584360         2.537335        -1.497016
 H         3.428869         1.641009        -2.391150
 H         2.963752         4.085522        -0.927963
 H         1.660992         3.172766        -1.756151
 H         2.467855         1.127837         1.509462
