19
Iteration:  1534
 C        -0.091940         0.082370        -0.267459
 C         1.437967         0.092965        -0.069465
 O         2.190938        -1.115136         0.081737
 C         2.477712        -0.193583        -0.996401
 C         3.467817         0.887894        -0.551589
 C         3.661702         2.040458        -1.416261
 C         2.490201         3.049088        -1.066398
 O         1.829299         2.518617         0.144040
 C         2.321927         1.200742         0.439168
 H        -0.593743         0.012773         0.719174
 H        -0.494899         1.016603        -0.646650
 H        -0.445742        -0.759227        -0.815452
 H         2.255071        -0.567480        -2.069084
 H         4.361277         0.444718        -0.058223
 H         4.617551         2.566585        -1.170754
 H         3.758581         1.774554        -2.541638
 H         2.840703         4.104388        -0.778553
 H         1.898888         3.226939        -1.996054
 H         2.525709         1.245237         1.518970
