19
Iteration:  4636charge 0 multiplicity 1
 C        -0.109538        -0.070499        -0.192045
 C         1.350925         0.030443        -0.120435
 O         2.165850        -1.199283        -0.060866
 C         2.477021        -0.197075        -1.088207
 C         3.474825         0.864375        -0.507628
 C         3.535202         2.081161        -1.460502
 C         2.576679         3.103262        -1.006624
 O         1.989595         2.684041         0.226406
 C         2.306717         1.245154         0.530863
 H        -0.692199        -0.121175         0.769752
 H        -0.603348         0.822141        -0.772488
 H        -0.427494        -0.924329        -0.766308
 H         2.469798        -0.558509        -2.086821
 H         4.405805         0.544573         0.021656
 H         4.568389         2.573717        -1.564350
 H         3.209599         1.887639        -2.495522
 H         3.097624         4.006246        -0.689448
 H         1.807549         3.428005        -1.847614
 H         2.571226         1.345349         1.550186
