19
Iteration:  2274charge 0 multiplicity 1
 C        -0.087092        -0.010198        -0.331077
 C         1.375267         0.189459        -0.190533
 O         2.132099        -1.090957        -0.063976
 C         2.479002        -0.143112        -1.086954
 C         3.432921         0.871389        -0.392992
 C         3.655332         2.051824        -1.459266
 C         2.369812         2.833356        -1.130452
 O         2.062454         2.663161         0.332278
 C         2.341385         1.269165         0.614282
 H        -0.408671        -0.157240         0.702039
 H        -0.510925         0.948857        -0.720642
 H        -0.350084        -0.858398        -0.864289
 H         2.557114        -0.599154        -2.143535
 H         4.422751         0.751236         0.012036
 H         4.645506         2.625587        -1.253020
 H         3.628867         1.490268        -2.485611
 H         2.335945         3.920646        -1.167028
 H         1.543166         2.446449        -1.722479
 H         2.461178         0.987016         1.708258
