19
Iteration:  2459charge 0 multiplicity 1
 C        -0.100782         0.080312        -0.216640
 C         1.405617         0.114143        -0.159309
 O         2.169821        -1.168225         0.049966
 C         2.486175        -0.183979        -1.071606
 C         3.489510         0.817285        -0.521336
 C         3.691861         2.066254        -1.352621
 C         2.496808         3.078862        -1.090373
 O         1.794267         2.482297         0.149155
 C         2.360924         1.289609         0.477520
 H        -0.402350        -0.003589         0.908400
 H        -0.436135         1.122346        -0.642885
 H        -0.612930        -0.754589        -0.748925
 H         2.394709        -0.585621        -2.118460
 H         4.439710         0.469211        -0.060504
 H         4.710609         2.609790        -1.070898
 H         3.744385         1.936746        -2.400301
 H         2.857612         4.135826        -1.039047
 H         1.561806         3.006818        -1.772895
 H         2.585957         1.325363         1.601419
