19
Iteration:  3072charge 0 multiplicity 1
 C        -0.067536        -0.032577        -0.224382
 C         1.407501         0.106860        -0.147363
 O         2.217145        -1.077516         0.110994
 C         2.463360        -0.254762        -1.076535
 C         3.367438         0.786002        -0.610270
 C         3.575509         2.070750        -1.436943
 C         2.541365         3.120042        -0.970411
 O         1.874054         2.544461         0.148994
 C         2.356193         1.298084         0.434156
 H        -0.554814        -0.128687         0.810332
 H        -0.428805         0.927057        -0.525137
 H        -0.437068        -0.973925        -0.830439
 H         2.350112        -0.572532        -2.128517
 H         4.275223         0.244117        -0.197260
 H         4.508057         2.449126        -0.942079
 H         3.723140         1.847319        -2.431006
 H         2.980363         4.098391        -0.603572
 H         1.909841         3.469323        -1.775923
 H         2.719408         1.478459         1.473767
