19
Iteration:  3761
 C        -0.028543        -0.022969        -0.131756
 C         1.395879         0.106071        -0.161901
 O         2.209406        -1.142170         0.040039
 C         2.552313        -0.366757        -1.075781
 C         3.349617         0.839041        -0.559593
 C         3.504739         2.028062        -1.509773
 C         2.692824         3.156451        -0.901480
 O         1.806110         2.657636         0.101906
 C         2.246321         1.294182         0.447364
 H        -0.409220        -0.320003         0.938082
 H        -0.472453         0.922857        -0.446440
 H        -0.459126        -0.773528        -0.842467
 H         2.713208        -0.877893        -2.050253
 H         4.395160         0.663497        -0.188530
 H         4.528863         2.450602        -1.645082
 H         3.092974         1.796358        -2.436143
 H         3.463499         3.688897        -0.331363
 H         2.223043         3.933999        -1.504772
 H         2.344815         1.302403         1.576592
