19
Iteration:  3617charge 0 multiplicity 1
 C        -0.123886        -0.186656        -0.207432
 C         1.384961         0.100993        -0.137030
 O         2.260298        -1.117184         0.159562
 C         2.448480        -0.359268        -1.051939
 C         3.385085         0.841846        -0.563647
 C         3.465118         2.114803        -1.603962
 C         2.862994         3.214486        -0.806457
 O         1.860219         2.666023         0.046567
 C         2.217304         1.348800         0.388305
 H        -0.429933        -0.707739         0.830848
 H        -0.859855         0.676121        -0.409198
 H        -0.481089        -0.936097        -0.899153
 H         2.464261        -0.913560        -2.023096
 H         4.417035         0.715842        -0.091084
 H         4.502518         2.152167        -1.971975
 H         2.761880         2.001137        -2.379228
 H         3.562237         3.651135        -0.059501
 H         2.402262         4.033859        -1.360188
 H         2.285728         1.096953         1.476801
