19
Iteration:  2700
 C        -0.072994         0.103034        -0.138974
 C         1.439696         0.085537        -0.164233
 O         2.177038        -1.141654         0.023565
 C         2.608601        -0.248992        -1.023228
 C         3.452943         0.874552        -0.477750
 C         3.561513         2.037098        -1.468919
 C         2.655025         3.140823        -0.933094
 O         1.679665         2.500352        -0.038567
 C         2.299781         1.187962         0.543083
 H        -0.482085        -0.428058         0.743859
 H        -0.367680         1.168223        -0.091736
 H        -0.459314        -0.367979        -1.046095
 H         2.674243        -0.741945        -1.952264
 H         4.442835         0.487018        -0.153940
 H         4.572708         2.583786        -1.667426
 H         3.025768         1.883662        -2.452633
 H         3.253433         4.008978        -0.398467
 H         2.128000         3.592267        -1.792882
 H         2.396185         1.350740         1.634120
