19
Iteration:  1885
 C        -0.038950         0.194599        -0.113735
 C         1.429612         0.159478        -0.170966
 O         2.149821        -1.088298         0.047416
 C         2.484168        -0.158228        -1.228645
 C         3.527265         0.785840        -0.547111
 C         3.729456         2.157017        -1.193284
 C         2.328375         2.875867        -1.095114
 O         1.802732         2.498962         0.091798
 C         2.382618         1.201826         0.445258
 H        -0.473428        -0.060462         0.851257
 H        -0.549711         1.158836        -0.230373
 H        -0.374931        -0.428978        -0.823436
 H         2.524569        -0.761107        -2.102273
 H         4.329267         0.172884        -0.097555
 H         4.510601         2.554104        -0.419431
 H         4.200104         2.180911        -2.212919
 H         2.334074         3.997986        -1.301084
 H         1.826242         2.354483        -1.952093
 H         2.551543         1.109580         1.528099
