19
Iteration:   676charge 0 multiplicity 1
 C        -0.062109         0.274374        -0.256066
 C         1.430286         0.095222        -0.202986
 O         2.181239        -1.209385         0.107487
 C         2.504439        -0.256936        -1.199062
 C         3.449811         0.760239        -0.553479
 C         3.604768         2.086439        -1.317073
 C         2.292872         2.953512        -1.069985
 O         2.033614         2.636795         0.279247
 C         2.331581         1.232388         0.438582
 H        -0.243375         0.596061         0.769199
 H        -0.387071         1.014528        -0.907263
 H        -0.718138        -0.549931        -0.448408
 H         2.268686        -0.850722        -2.052644
 H         4.464868         0.386181        -0.307608
 H         4.464929         2.604444        -0.820602
 H         3.858340         2.121978        -2.340081
 H         2.654929         3.955341        -1.272922
 H         1.413737         2.570031        -1.749123
 H         2.404197         1.012487         1.496824
