19
Iteration:  2074
 C        -0.057874         0.230600        -0.285061
 C         1.405524         0.085203        -0.148259
 O         2.224446        -1.198576         0.058849
 C         2.537759        -0.263839        -1.046298
 C         3.465917         0.858539        -0.505425
 C         3.580061         2.099244        -1.447725
 C         2.398396         2.958761        -1.099577
 O         1.857713         2.593533         0.289902
 C         2.334637         1.198526         0.480397
 H        -0.522521         0.454531         0.610323
 H        -0.174254         1.131907        -0.744321
 H        -0.418358        -0.638349        -0.868320
 H         2.609979        -0.619830        -2.098279
 H         4.480055         0.468425        -0.153522
 H         4.573175         2.598700        -1.139644
 H         3.601188         1.794844        -2.498949
 H         2.686056         3.995236        -1.074634
 H         1.626693         2.811001        -1.912345
 H         2.481583         1.119326         1.561613
