19
Iteration:   999
 C        -0.141716         0.100347        -0.269707
 C         1.421269         0.154233        -0.160796
 O         2.109756        -1.042600         0.151469
 C         2.474375        -0.224339        -1.085165
 C         3.531459         0.866997        -0.618061
 C         3.696375         2.157817        -1.341102
 C         2.368226         2.842472        -1.115780
 O         1.956404         2.527481         0.268285
 C         2.359390         1.210103         0.433905
 H        -0.426667        -0.486177         0.579484
 H        -0.451177         1.112404         0.054232
 H        -0.546010        -0.082716        -1.295994
 H         2.272302        -0.846316        -2.054334
 H         4.506533         0.356687        -0.427212
 H         4.451922         2.785294        -0.978466
 H         3.962561         1.959714        -2.384752
 H         2.564455         4.012130        -1.146596
 H         1.636048         2.597083        -1.984469
 H         2.691858         0.988146         1.441259
