19
Iteration:  3982
 C        -0.122187        -0.041053        -0.030999
 C         1.366304         0.100408        -0.148649
 O         2.177023        -1.154164        -0.031270
 C         2.421016        -0.259303        -1.142852
 C         3.450055         0.847091        -0.528266
 C         3.733978         2.168865        -1.303491
 C         2.478145         3.017002        -1.113851
 O         1.971396         2.666812         0.150148
 C         2.275951         1.260379         0.423865
 H        -0.338455        -0.755296         0.692280
 H        -0.663154         0.836198         0.216820
 H        -0.368187        -0.425971        -1.079212
 H         2.389715        -0.733897        -2.209193
 H         4.304324         0.388041         0.001033
 H         4.652515         2.642576        -0.997958
 H         3.702464         2.021620        -2.382339
 H         2.731235         4.073609        -1.083678
 H         1.650441         2.819519        -1.835279
 H         2.559698         1.258813         1.533252
