19
Iteration:  4347charge 0 multiplicity 1
 C         0.004140         0.138785        -0.230908
 C         1.432049        -0.023574        -0.058489
 O         2.192984        -1.194476         0.105925
 C         2.425663        -0.255319        -1.189743
 C         3.412842         0.835187        -0.661373
 C         3.652529         2.256216        -1.380179
 C         2.500115         3.131518        -0.979862
 O         1.827948         2.518998         0.181158
 C         2.311422         1.113664         0.475438
 H        -0.727293        -0.129147         0.635459
 H        -0.073447         1.343120        -0.319674
 H        -0.417030        -0.363335        -1.068341
 H         2.344737        -0.823230        -2.148817
 H         4.384349         0.592213        -0.199884
 H         4.655160         2.749138        -1.197229
 H         3.637610         2.042417        -2.455336
 H         2.922938         4.127232        -0.652801
 H         1.684244         3.171221        -1.779562
 H         2.618357         1.173378         1.527233
