19
Iteration:   654
 C        -0.088316         0.215543        -0.200677
 C         1.369369         0.198509        -0.259020
 O         2.127598        -1.000016         0.026892
 C         2.582275        -0.315039        -1.090153
 C         3.433351         0.772922        -0.530912
 C         3.654008         2.143365        -1.432419
 C         2.341401         2.880924        -1.056665
 O         2.059799         2.531425         0.324775
 C         2.274228         1.154001         0.453155
 H        -0.355701         0.482671         0.815960
 H        -0.523119         0.924229        -0.814469
 H        -0.612920        -0.684893        -0.430362
 H         2.671482        -0.984240        -1.945886
 H         4.421479         0.533835        -0.120407
 H         4.540567         2.721625        -1.096639
 H         3.729664         2.099353        -2.498721
 H         2.551159         3.932059        -1.205885
 H         1.488879         2.499101        -1.738496
 H         2.530640         0.818022         1.442011
