19
Iteration:  3272charge 0 multiplicity 1
 C        -0.042039        -0.156236        -0.297131
 C         1.373805         0.212266        -0.180715
 O         2.199841        -1.148506         0.114265
 C         2.439420        -0.212292        -1.079043
 C         3.405515         0.789625        -0.540319
 C         3.520800         2.062458        -1.457770
 C         2.509590         3.090470        -1.051529
 O         2.077120         2.746005         0.272855
 C         2.275537         1.273495         0.494415
 H        -0.529026        -0.470516         0.659639
 H        -0.755729         0.606416        -0.850149
 H        -0.179835        -0.961166        -1.000803
 H         2.217181        -0.640430        -2.036665
 H         4.306698         0.369896        -0.078559
 H         4.470397         2.461682        -1.299116
 H         3.485463         1.681641        -2.484661
 H         2.840932         4.147845        -0.922342
 H         1.567215         3.005313        -1.711386
 H         2.594409         0.978073         1.513570
