19
Iteration:  1251charge 0 multiplicity 1
 C        -0.061446         0.300445        -0.269848
 C         1.461222         0.124788        -0.117535
 O         2.226783        -1.156449        -0.045134
 C         2.523372        -0.180029        -1.055567
 C         3.500483         0.801727        -0.472792
 C         3.666478         2.141781        -1.403952
 C         2.283477         2.774808        -1.178664
 O         1.896920         2.542545         0.248109
 C         2.318329         1.217695         0.612587
 H        -0.557997         0.030817         0.692316
 H        -0.124451         1.390299        -0.290067
 H        -0.473873        -0.307600        -1.112077
 H         2.223036        -0.401837        -2.031634
 H         4.434073         0.375056        -0.057903
 H         4.562522         2.687841        -1.156356
 H         3.702921         1.937086        -2.446373
 H         2.205732         3.919604        -1.324272
 H         1.545235         2.269128        -1.943732
 H         2.439330         1.187072         1.685760
