19
Iteration:     9
 C        -0.113559         0.216596        -0.178248
 C         1.412863         0.249706        -0.176832
 O         2.060321        -1.133081        -0.009325
 C         2.482134        -0.294476        -1.114641
 C         3.484623         0.735687        -0.577632
 C         3.641076         2.119324        -1.431727
 C         2.449698         2.911268        -1.122219
 O         1.958412         2.622874         0.280472
 C         2.405278         1.166834         0.548635
 H        -0.257306        -0.110687         0.886845
 H        -0.593214         1.191251        -0.230872
 H        -0.469391        -0.602521        -0.808524
 H         2.546983        -0.856275        -1.977345
 H         4.462946         0.516958        -0.317052
 H         4.446966         2.602696        -0.940476
 H         3.934181         1.922095        -2.490528
 H         2.579095         3.967446        -1.170005
 H         1.589333         2.589584        -1.740787
 H         2.546656         1.129805         1.711005
