19
Iteration:  3960
 C        -0.196266        -0.153301        -0.033811
 C         1.319203         0.073667        -0.241139
 O         2.200129        -1.058326         0.004598
 C         2.507414        -0.214370        -1.078784
 C         3.409915         0.897846        -0.541867
 C         3.708239         2.047872        -1.489854
 C         2.614737         3.116145        -1.075231
 O         1.904605         2.636112         0.204130
 C         2.286565         1.270077         0.468646
 H        -0.381079        -0.656768         0.847820
 H        -0.626265         0.807921         0.132308
 H        -0.763221        -0.659073        -0.950203
 H         2.648023        -0.607522        -2.187273
 H         4.364843         0.438144        -0.237563
 H         4.647500         2.282493        -1.036067
 H         3.827840         1.768606        -2.535571
 H         2.952838         4.053285        -0.650095
 H         1.759963         3.255591        -1.798524
 H         2.328941         1.069333         1.605817
