19
Iteration:  1447
 C         0.005947         0.197349        -0.463502
 C         1.453180         0.251181        -0.069737
 O         2.112692        -1.045751         0.123874
 C         2.428449        -0.194897        -1.114019
 C         3.526496         0.742776        -0.500297
 C         3.560899         2.108467        -1.409708
 C         2.199018         2.765176        -1.121683
 O         1.980347         2.572084         0.303098
 C         2.530919         1.237017         0.551443
 H        -0.517121        -0.088088         0.414645
 H        -0.331549         1.097104        -0.949502
 H         0.067225        -0.584735        -1.194747
 H         2.328626        -0.917248        -2.010725
 H         4.419032         0.175395        -0.108747
 H         4.350664         2.860602        -1.070647
 H         3.932348         1.916606        -2.546843
 H         2.136490         3.885208        -1.143781
 H         1.355845         2.398600        -1.660350
 H         2.546873         1.001524         1.611305
