19
Iteration:  4342
 C        -0.005440         0.120992        -0.237882
 C         1.435768        -0.041007        -0.035088
 O         2.191371        -1.221696         0.100691
 C         2.376815        -0.227914        -1.194817
 C         3.392700         0.941749        -0.619901
 C         3.694829         2.230283        -1.383757
 C         2.497751         3.127100        -1.003156
 O         1.865448         2.512296         0.180770
 C         2.336341         1.119923         0.426579
 H        -0.575389        -0.104324         0.603924
 H        -0.153994         1.199462        -0.241830
 H        -0.551934        -0.401779        -1.085234
 H         2.283100        -0.778542        -2.133779
 H         4.212247         0.542662         0.034087
 H         4.618065         2.779297        -1.179319
 H         3.671316         2.068162        -2.513170
 H         2.811006         4.078199        -0.641608
 H         1.707643         3.017044        -1.700658
 H         2.557065         1.131742         1.560813
