19
Iteration:  1999charge 0 multiplicity 1
 C        -0.033459         0.128015        -0.391478
 C         1.419202         0.140589        -0.255258
 O         2.192701        -1.122429         0.155645
 C         2.552707        -0.286706        -1.034735
 C         3.409327         0.779451        -0.583004
 C         3.545406         2.140241        -1.361775
 C         2.270965         2.952736        -1.092322
 O         2.108028         2.630899         0.339917
 C         2.276333         1.228612         0.436966
 H        -0.532636         0.209731         0.606571
 H        -0.315096         1.083114        -0.866631
 H        -0.324920        -0.851166        -1.009322
 H         2.506019        -1.016141        -1.865469
 H         4.358767         0.440397        -0.080749
 H         4.388777         2.723033        -0.940231
 H         3.684081         1.837002        -2.369445
 H         2.563196         3.975277        -1.192870
 H         1.329681         2.761945        -1.696359
 H         2.484762         1.152871         1.502632
