19
Iteration:  1887charge 0 multiplicity 1
 C        -0.045197         0.202630        -0.101173
 C         1.423424         0.150826        -0.162372
 O         2.150805        -1.086949         0.035401
 C         2.493652        -0.158269        -1.231356
 C         3.530487         0.786835        -0.545599
 C         3.721405         2.175629        -1.195212
 C         2.327054         2.875947        -1.098443
 O         1.804163         2.497429         0.091687
 C         2.373847         1.196339         0.446651
 H        -0.477005        -0.058227         0.882094
 H        -0.525258         1.179278        -0.215628
 H        -0.420612        -0.443915        -0.921757
 H         2.565481        -0.882811        -2.067612
 H         4.396548         0.184563        -0.094147
 H         4.488146         2.562648        -0.509339
 H         4.212513         2.092847        -2.112074
 H         2.401671         3.957483        -1.322904
 H         1.866950         2.402337        -1.907017
 H         2.544553         1.125659         1.509320
