19
Iteration:   549
 C        -0.027328         0.250454        -0.106293
 C         1.408575         0.198204        -0.288893
 O         2.025400        -1.152561         0.000637
 C         2.550677        -0.317561        -1.128342
 C         3.549496         0.723107        -0.540100
 C         3.642737         2.106209        -1.377472
 C         2.333796         2.915261        -1.088827
 O         1.946593         2.591171         0.283808
 C         2.368505         1.262921         0.453722
 H        -0.161873        -0.317196         0.850834
 H        -0.233816         1.371309         0.112164
 H        -0.681387        -0.239832        -0.889778
 H         2.535078        -0.753566        -2.105686
 H         4.508954         0.518095        -0.152018
 H         4.443020         2.727733        -0.930216
 H         3.990604         1.968296        -2.410217
 H         2.433754         4.033374        -1.253252
 H         1.536809         2.476696        -1.747884
 H         2.390299         0.976849         1.517772
