19
Iteration:   427
 C        -0.049708         0.146432        -0.174218
 C         1.398617         0.179784        -0.167018
 O         2.065258        -1.083996         0.016216
 C         2.480000        -0.255902        -1.117652
 C         3.519790         0.810470        -0.548522
 C         3.650463         2.053398        -1.443540
 C         2.453770         2.981848        -1.019084
 O         1.927914         2.556323         0.260352
 C         2.335337         1.197802         0.467463
 H        -0.339045        -0.156699         0.857912
 H        -0.433357         1.204808        -0.221849
 H        -0.492000        -0.546508        -0.927317
 H         2.405988        -0.693459        -2.189855
 H         4.460500         0.354705        -0.328339
 H         4.581666         2.602425        -1.176145
 H         3.621356         1.823912        -2.481718
 H         2.812104         4.023298        -0.994449
 H         1.730881         2.905897        -1.869381
 H         2.532237         1.003261         1.570458
