19
Iteration:  3664charge 0 multiplicity 1
 C        -0.146333        -0.140547        -0.060268
 C         1.298332         0.165586        -0.200421
 O         2.289839        -1.118803         0.080995
 C         2.473336        -0.260868        -1.029548
 C         3.382953         0.925479        -0.583788
 C         3.575510         2.077059        -1.513437
 C         2.839167         3.210988        -0.773896
 O         1.779612         2.563331        -0.028801
 C         2.260845         1.255466         0.355623
 H        -0.466956        -0.377999         0.992605
 H        -0.890050         0.548787        -0.462795
 H        -0.469748        -1.053728        -0.558913
 H         2.469659        -0.785439        -2.027057
 H         4.188919         0.328431        -0.092059
 H         4.665475         2.239109        -1.818960
 H         2.978942         1.772025        -2.324280
 H         3.545589         3.788818        -0.115071
 H         2.376431         3.870160        -1.533978
 H         2.516013         1.210771         1.395861
