19
Iteration:  3578
 C        -0.018562         0.096372        -0.298787
 C         1.504107         0.149283        -0.085964
 O         2.240331        -1.082787         0.185748
 C         2.526050        -0.411318        -1.011112
 C         3.404501         0.870552        -0.620936
 C         3.368011         2.062536        -1.602211
 C         2.715534         3.126136        -0.710184
 O         1.708435         2.489769         0.016017
 C         2.330640         1.272281         0.420079
 H        -0.426756        -0.078283         0.631439
 H        -0.372217         0.997109        -0.782024
 H        -0.138416        -0.756948        -1.006007
 H         2.199693        -0.841803        -1.999349
 H         4.358594         0.498886        -0.275004
 H         4.391404         2.314225        -2.076547
 H         2.631411         1.728625        -2.438525
 H         3.538165         3.417668        -0.017048
 H         2.408513         4.067263        -1.172261
 H         2.494181         1.592389         1.448399
