19
Iteration:  1846
 C        -0.178245         0.058025        -0.186728
 C         1.382717         0.076367        -0.079807
 O         2.185327        -1.167891        -0.071774
 C         2.489572        -0.104584        -1.105417
 C         3.427804         0.821188        -0.431795
 C         3.743689         2.096995        -1.283731
 C         2.367225         2.913640        -1.164643
 O         1.990813         2.632108         0.166060
 C         2.360854         1.256450         0.529351
 H        -0.691975         0.020713         0.819137
 H        -0.507251         0.940253        -0.769188
 H        -0.373882        -0.918507        -0.909657
 H         2.564689        -0.314960        -2.277744
 H         4.370745         0.403734         0.016707
 H         4.602834         2.678589        -0.993566
 H         3.875840         2.026038        -2.451240
 H         2.371002         4.015242        -1.275048
 H         1.576952         2.472238        -1.968213
 H         2.506558         1.276422         1.607399
