19
Iteration:  3576
 C        -0.009536         0.104737        -0.294271
 C         1.508101         0.140017        -0.107398
 O         2.236067        -1.080580         0.185218
 C         2.528935        -0.423305        -0.999784
 C         3.421550         0.853962        -0.630344
 C         3.359938         2.053556        -1.610081
 C         2.710162         3.138357        -0.705023
 O         1.700778         2.494439         0.008412
 C         2.319449         1.271888         0.437097
 H        -0.418971        -0.063132         0.671596
 H        -0.321761         1.002789        -0.840431
 H        -0.159932        -0.669545        -0.956866
 H         2.153542        -0.805468        -1.999658
 H         4.427186         0.497901        -0.266467
 H         4.379508         2.436890        -2.063125
 H         2.677682         1.691238        -2.372666
 H         3.575656         3.458334        -0.027700
 H         2.359194         4.071162        -1.147564
 H         2.502597         1.527126         1.453274
