19
Iteration:   164charge 0 multiplicity 1
 C        -0.079273         0.260375        -0.150430
 C         1.426680         0.164532        -0.104928
 O         2.083796        -1.167027        -0.052710
 C         2.485631        -0.214958        -1.079017
 C         3.488046         0.833561        -0.526320
 C         3.659340         2.103866        -1.352803
 C         2.397422         2.939916        -1.131762
 O         1.940806         2.494405         0.202745
 C         2.419866         1.177551         0.504444
 H        -0.632290         0.127155         0.796329
 H        -0.396803         1.264523        -0.476902
 H        -0.568660        -0.410421        -0.865850
 H         2.315035        -0.680844        -2.100670
 H         4.422963         0.516197        -0.171497
 H         4.619223         2.570215        -1.037585
 H         3.739631         1.792009        -2.383890
 H         2.480397         4.049889        -1.156199
 H         1.633370         2.594215        -1.885458
 H         2.656065         1.200090         1.602053
