19
Iteration:  2560charge 0 multiplicity 1
 C        -0.105159        -0.097376        -0.284000
 C         1.401878         0.078792        -0.093852
 O         2.224530        -1.038134         0.173857
 C         2.544591        -0.378313        -1.032029
 C         3.420170         0.888746        -0.560163
 C         3.456385         2.053785        -1.620677
 C         2.826952         3.184877        -0.728218
 O         1.776400         2.539329         0.014604
 C         2.235045         1.320845         0.389688
 H        -0.770719        -0.398748         0.662108
 H        -0.420097         0.934709        -0.635495
 H        -0.380333        -0.859212        -1.054582
 H         2.388682        -1.078107        -1.826177
 H         4.402519         0.610401        -0.189706
 H         4.468201         2.499378        -1.824218
 H         2.774721         1.993630        -2.482692
 H         3.510624         3.619766         0.040323
 H         2.473126         4.032254        -1.447690
 H         2.410632         1.453786         1.522302
