19
Iteration:  2419charge 0 multiplicity 1
 C        -0.067197         0.022920        -0.243573
 C         1.440625         0.160569        -0.204712
 O         2.155877        -1.071676         0.039556
 C         2.429772        -0.203233        -1.144343
 C         3.451057         0.816777        -0.572801
 C         3.722936         2.144229        -1.237992
 C         2.351226         2.794212        -1.200197
 O         1.987619         2.663054         0.292489
 C         2.320468         1.295116         0.485514
 H        -0.391668        -0.013249         0.787098
 H        -0.503936         0.914724        -0.628879
 H        -0.526835        -0.821499        -0.672060
 H         2.286830        -0.597521        -2.095729
 H         4.249510         0.195813        -0.168685
 H         4.330990         2.658148        -0.517702
 H         4.038545         1.951635        -2.327374
 H         2.423950         3.890656        -1.213534
 H         1.683596         2.432304        -1.947202
 H         2.564083         1.012813         1.519471
