19
Iteration:  3370
 C         0.035544         0.382073        -0.168015
 C         1.440387         0.108209        -0.018255
 O         2.136474        -1.105288        -0.139575
 C         2.510108        -0.172767        -1.098972
 C         3.528757         0.920257        -0.432239
 C         3.680157         2.125911        -1.382151
 C         2.261074         2.692167        -1.149434
 O         1.864946         2.451098         0.183963
 C         2.384659         1.181434         0.573638
 H        -0.510372         0.220208         0.788160
 H        -0.363320         1.372334        -0.602860
 H        -0.291291        -0.445110        -0.822541
 H         2.586933        -0.372419        -2.181609
 H         4.405002         0.354784        -0.137415
 H         4.336444         2.800651        -0.993530
 H         3.932548         2.148416        -2.417117
 H         1.955233         3.693336        -1.458750
 H         1.616550         2.079853        -1.825512
 H         2.457062         1.206767         1.677691
