19
Iteration:  2484charge 0 multiplicity 1
 C        -0.020815         0.098567        -0.170387
 C         1.428573         0.127162        -0.113618
 O         2.163526        -1.129740        -0.023231
 C         2.564633        -0.282079        -1.093040
 C         3.439503         0.871081        -0.451647
 C         3.622892         2.041788        -1.391816
 C         2.552216         3.022573        -1.032294
 O         1.792057         2.518056         0.078801
 C         2.263116         1.265545         0.492618
 H        -0.464713        -0.232961         0.799759
 H        -0.222602         1.149001        -0.453906
 H        -0.465597        -0.606703        -0.824548
 H         2.443498        -0.654299        -2.056759
 H         4.366305         0.661081         0.102549
 H         4.582915         2.648235        -1.412682
 H         3.223053         1.761869        -2.387128
 H         3.255303         3.872760        -0.739076
 H         1.724228         3.412697        -1.778636
 H         2.297618         1.476430         1.609428
