19
Iteration:  3614
 C        -0.116251        -0.172888        -0.223472
 C         1.372519         0.077508        -0.111694
 O         2.260598        -1.111257         0.171361
 C         2.466754        -0.352051        -1.053849
 C         3.413419         0.860646        -0.566962
 C         3.468095         2.139417        -1.607133
 C         2.849246         3.214135        -0.805996
 O         1.871652         2.648916         0.033028
 C         2.210617         1.323183         0.407121
 H        -0.517675        -0.630095         0.741691
 H        -0.773971         0.701500        -0.370436
 H        -0.543450        -0.982362        -0.940900
 H         2.317503        -0.836487        -1.998578
 H         4.396548         0.595688        -0.173047
 H         4.427837         2.142128        -2.030625
 H         2.683850         1.970571        -2.471053
 H         3.573985         3.546996        -0.079701
 H         2.408257         4.073904        -1.342007
 H         2.175837         1.187313         1.566053
