19
Iteration:  2392charge 0 multiplicity 1
 C        -0.106663         0.075347        -0.206307
 C         1.423247         0.219131        -0.155634
 O         2.088842        -1.088361        -0.087282
 C         2.577636        -0.123109        -1.046158
 C         3.503410         0.850248        -0.443520
 C         3.681535         2.114729        -1.368598
 C         2.318897         2.801094        -1.235465
 O         2.023264         2.562361         0.294688
 C         2.313061         1.270709         0.526276
 H        -0.579194        -0.230789         0.770490
 H        -0.604474         1.026000        -0.557001
 H        -0.482191        -0.782696        -0.856021
 H         2.686402        -0.541200        -2.123569
 H         4.324661         0.279440         0.013287
 H         4.491996         2.669556        -0.838454
 H         3.833110         1.782498        -2.340146
 H         2.222889         3.871370        -1.243332
 H         1.601772         2.289362        -1.968867
 H         2.416768         1.007643         1.608904
