19
Iteration:  4150charge 0 multiplicity 1
 C        -0.076980        -0.160740        -0.402677
 C         1.314328         0.116644        -0.191521
 O         2.119845        -0.999061         0.069743
 C         2.479314        -0.333506        -1.074323
 C         3.475762         0.884043        -0.476730
 C         3.459687         2.102893        -1.543579
 C         2.477020         3.163400        -0.946410
 O         2.170500         2.575442         0.334833
 C         2.321506         1.223954         0.540002
 H        -0.593877        -0.327380         0.542259
 H        -0.606575         0.763848        -0.827734
 H        -0.178379        -0.939225        -1.081412
 H         2.466186        -0.791967        -2.073935
 H         4.432394         0.573456         0.012363
 H         4.376886         2.669173        -1.650382
 H         3.264691         1.771151        -2.552576
 H         2.809309         4.249842        -0.887578
 H         1.724267         3.350038        -1.729128
 H         2.491549         0.946917         1.559738
