19
Iteration:   577charge 0 multiplicity 1
 C        -0.127988         0.229553        -0.181428
 C         1.385639         0.181366        -0.138474
 O         2.096804        -1.050294         0.071863
 C         2.513576        -0.282946        -1.145975
 C         3.486532         0.773888        -0.552782
 C         3.612955         2.132804        -1.397526
 C         2.382114         2.926919        -1.064012
 O         2.015823         2.496156         0.240602
 C         2.412529         1.195833         0.452520
 H        -0.559602        -0.510949         0.480594
 H        -0.540638         1.179242        -0.105405
 H        -0.413781        -0.116758        -1.166884
 H         2.479929        -0.821206        -2.136872
 H         4.510120         0.560076        -0.131892
 H         4.497072         2.750383        -1.167195
 H         3.793364         1.896107        -2.441801
 H         2.526250         3.993107        -1.090357
 H         1.599700         2.532528        -1.782804
 H         2.556379         0.959820         1.511275
