19
Iteration:   433
 C        -0.036929         0.200655        -0.148037
 C         1.397981         0.184981        -0.203935
 O         2.109969        -1.084199         0.027741
 C         2.501722        -0.286355        -1.159089
 C         3.421524         0.856443        -0.568226
 C         3.676649         2.049777        -1.413066
 C         2.463150         2.932149        -1.025555
 O         1.935194         2.560725         0.282492
 C         2.294905         1.176767         0.448608
 H        -0.373094        -0.141514         0.841613
 H        -0.617258         1.102696        -0.240312
 H        -0.517950        -0.519585        -0.792124
 H         2.515740        -0.657335        -2.156505
 H         4.425082         0.410508        -0.143456
 H         4.670195         2.456445        -1.227878
 H         3.757081         1.737662        -2.516230
 H         2.766320         3.994133        -1.010941
 H         1.600991         2.975877        -1.718532
 H         2.653348         1.089126         1.464443
