19
Iteration:  3571charge 0 multiplicity 1
 C         0.033891         0.137021        -0.275748
 C         1.492702         0.111483        -0.141368
 O         2.222070        -1.087162         0.191932
 C         2.535474        -0.417950        -0.994330
 C         3.476712         0.809899        -0.645772
 C         3.357201         2.041957        -1.618392
 C         2.720249         3.171819        -0.697161
 O         1.683102         2.505838        -0.010795
 C         2.293351         1.273609         0.462514
 H        -0.499650         0.010250         0.745373
 H        -0.228126         1.040252        -0.859895
 H        -0.319246        -0.745433        -0.980661
 H         2.197452        -0.757033        -1.938044
 H         4.479854         0.602088        -0.277911
 H         4.175843         2.574490        -1.967824
 H         2.686297         1.659792        -2.426509
 H         3.546840         3.532593        -0.072721
 H         2.212787         4.053970        -1.157655
 H         2.579579         1.235378         1.589928
