19
Iteration:  1162charge 0 multiplicity 1
 C        -0.069351         0.074695        -0.279176
 C         1.408077         0.266117        -0.284844
 O         2.204378        -1.069464         0.043968
 C         2.523954        -0.221604        -1.092842
 C         3.487931         0.846607        -0.483125
 C         3.562134         1.968193        -1.416900
 C         2.384294         2.905471        -1.088101
 O         2.017569         2.601511         0.357608
 C         2.272384         1.263218         0.518716
 H        -0.587568        -0.271935         0.645733
 H        -0.802403         0.889145        -0.507340
 H        -0.319020        -0.741039        -1.069330
 H         2.630599        -0.728130        -2.134685
 H         4.402751         0.540733         0.037311
 H         4.489370         2.482411        -1.391985
 H         3.469879         1.633433        -2.490208
 H         2.654180         4.025417        -1.130783
 H         1.574471         2.690487        -1.844302
 H         2.344415         1.185848         1.614658
