19
Iteration:  4178
 C        -0.026047         0.023407        -0.298347
 C         1.394332         0.092826        -0.262100
 O         2.157737        -1.083618         0.034221
 C         2.556309        -0.291359        -1.101871
 C         3.483235         0.829789        -0.511094
 C         3.535876         1.988267        -1.499063
 C         2.514520         3.110041        -0.882335
 O         1.903716         2.645134         0.364342
 C         2.271641         1.286256         0.417695
 H        -0.285342        -0.339077         0.741503
 H        -0.471352         1.039043        -0.388398
 H        -0.435293        -0.817934        -1.008966
 H         2.684913        -0.618009        -2.113143
 H         4.331403         0.409832         0.003890
 H         4.471596         2.508401        -1.762463
 H         3.105080         1.693531        -2.514810
 H         2.838035         4.146781        -0.838662
 H         1.741466         3.015132        -1.699920
 H         2.511892         0.957207         1.487037
