19
Iteration:  3343charge 0 multiplicity 1
 C        -0.046120         0.316975        -0.170271
 C         1.435506         0.095028        -0.153670
 O         2.156873        -1.129778        -0.008356
 C         2.582707        -0.237092        -1.116253
 C         3.536666         0.824669        -0.505069
 C         3.581584         2.072369        -1.306049
 C         2.248862         2.850020        -1.158742
 O         1.903681         2.575340         0.238960
 C         2.399474         1.189992         0.441054
 H        -0.313307         0.050476         0.855923
 H        -0.423966         1.247261        -0.468832
 H        -0.553314        -0.430181        -0.838593
 H         2.684566        -0.622113        -2.133978
 H         4.483331         0.388974        -0.097018
 H         4.347093         2.810531        -0.755473
 H         3.908441         2.102703        -2.372942
 H         2.354863         3.935192        -1.337009
 H         1.479196         2.451484        -1.826553
 H         2.434740         1.034470         1.543357
