19
Iteration:   214
 C        -0.167807         0.120287        -0.164848
 C         1.374087         0.184367        -0.126699
 O         2.232268        -1.002041        -0.019774
 C         2.411086        -0.199267        -1.160741
 C         3.339970         0.795765        -0.505110
 C         3.711070         2.072714        -1.405335
 C         2.468109         2.879926        -1.137705
 O         2.048470         2.562465         0.276932
 C         2.331561         1.185049         0.516227
 H        -0.703635        -0.370689         0.658853
 H        -0.710205         1.064300        -0.133045
 H        -0.556145        -0.428864        -1.031456
 H         2.463800        -0.559374        -2.120496
 H         4.319936         0.271912        -0.141724
 H         4.585007         2.603759        -1.088537
 H         3.780303         1.717042        -2.486475
 H         2.699091         3.914356        -1.071688
 H         1.645904         2.648320        -1.815541
 H         2.607071         1.156073         1.558735
