19
Iteration:  1375
 C        -0.067216         0.067254        -0.136889
 C         1.381406         0.172901        -0.239601
 O         2.108109        -1.066512         0.071844
 C         2.573298        -0.231413        -1.097336
 C         3.507506         0.867321        -0.508561
 C         3.710209         2.040311        -1.439501
 C         2.438546         2.969525        -1.071286
 O         1.853192         2.560425         0.164826
 C         2.244444         1.181076         0.481757
 H        -0.137673        -0.295203         0.951656
 H        -0.565742         1.107442        -0.161743
 H        -0.492976        -0.667617        -0.870692
 H         2.740804        -0.791418        -2.058968
 H         4.426512         0.391724        -0.046513
 H         4.582741         2.658651        -1.205633
 H         3.874213         1.905945        -2.445339
 H         2.895951         3.938446        -0.854642
 H         1.645407         3.279660        -1.889500
 H         2.417873         1.209719         1.559409
