19
Iteration:   770charge 0 multiplicity 1
 C        -0.150314         0.114751        -0.077744
 C         1.293549         0.151196        -0.230836
 O         2.084135        -1.075033         0.007270
 C         2.580042        -0.313906        -1.110951
 C         3.534840         0.823302        -0.606611
 C         3.698852         2.126231        -1.345578
 C         2.405033         2.910669        -1.187876
 O         2.054859         2.614551         0.243497
 C         2.263324         1.222205         0.502745
 H        -0.411974        -0.715533         0.638309
 H        -0.567649         1.101061         0.294053
 H        -0.664214        -0.119862        -1.054802
 H         2.628991        -0.802943        -2.042971
 H         4.445805         0.545550        -0.134251
 H         4.370394         2.668828        -0.678572
 H         4.301961         2.081208        -2.308336
 H         2.374852         3.996210        -1.154588
 H         1.575702         2.500290        -1.820443
 H         2.453415         1.146218         1.557242
