19
Iteration:  4810charge 0 multiplicity 1
 C        -0.113389        -0.188022        -0.136483
 C         1.384686         0.043849        -0.187056
 O         2.241570        -1.043170         0.154344
 C         2.459756        -0.212033        -1.137970
 C         3.361711         0.883890        -0.678555
 C         3.541692         2.118080        -1.576702
 C         2.923951         3.122788        -0.659530
 O         1.755365         2.572341         0.004414
 C         2.183765         1.288194         0.440156
 H        -0.630233        -0.159918         0.865009
 H        -0.647283         0.610729        -0.645219
 H        -0.366824        -1.083180        -0.651609
 H         2.360053        -0.778443        -2.039432
 H         4.337956         0.595308        -0.240945
 H         4.638910         2.282679        -1.855599
 H         3.014723         2.065278        -2.581800
 H         3.490019         3.641092         0.226808
 H         2.632847         3.929376        -1.282479
 H         2.539741         1.196669         1.523025
