19
Iteration:   366
 C        -0.155150         0.233335        -0.203731
 C         1.407489         0.165569        -0.202533
 O         2.207821        -1.032797         0.009239
 C         2.481922        -0.252429        -1.143493
 C         3.475178         0.756128        -0.580561
 C         3.596005         2.004522        -1.351656
 C         2.351525         2.905456        -1.034204
 O         2.078193         2.593897         0.268562
 C         2.335208         1.203949         0.517872
 H        -0.481399        -0.239810         0.731811
 H        -0.541907         1.269470        -0.334556
 H        -0.586337        -0.392734        -1.005316
 H         2.463297        -0.787378        -2.015073
 H         4.492912         0.199388        -0.404060
 H         4.465216         2.636256        -1.152479
 H         3.765959         1.836754        -2.464147
 H         2.380024         4.007966        -0.991883
 H         1.479671         2.744356        -1.760475
 H         2.322753         0.997715         1.565104
