19
Iteration:  1389charge 0 multiplicity 1
 C        -0.087463         0.134279        -0.118397
 C         1.456482         0.132619        -0.272024
 O         2.180792        -1.051241         0.014998
 C         2.610875        -0.283786        -1.064036
 C         3.444636         0.785661        -0.422370
 C         3.540023         2.059267        -1.368566
 C         2.474944         3.001139        -1.083845
 O         1.930010         2.555011         0.168135
 C         2.260920         1.266648         0.397028
 H        -0.433475        -0.295334         0.846879
 H        -0.422496         1.194897        -0.189197
 H        -0.566674        -0.533295        -0.900508
 H         2.618958        -0.687480        -2.008093
 H         4.368756         0.578041         0.063827
 H         4.529692         2.440795        -1.105934
 H         3.491619         1.698703        -2.436230
 H         2.615008         4.099454        -1.025186
 H         1.705282         2.803875        -1.833713
 H         2.153330         0.937432         1.472148
