19
Iteration:  1954charge 0 multiplicity 1
 C        -0.041464         0.043831        -0.316638
 C         1.393952         0.232933        -0.135114
 O         2.112882        -1.077264         0.034890
 C         2.476419        -0.119704        -1.054325
 C         3.477483         0.865985        -0.462634
 C         3.677810         2.035423        -1.410621
 C         2.363323         2.872729        -1.115909
 O         1.987110         2.554794         0.212376
 C         2.353620         1.223458         0.533238
 H        -0.412531        -0.410317         0.609891
 H        -0.750213         0.855393        -0.363966
 H        -0.140389        -0.728409        -1.204689
 H         2.460982        -0.508018        -2.139843
 H         4.502838         0.471907        -0.110221
 H         4.477862         2.724836        -1.058962
 H         3.815508         1.812031        -2.418956
 H         2.372183         3.947612        -1.020362
 H         1.458824         2.647355        -1.674808
 H         2.437872         1.140196         1.602929
