19
Iteration:  4989
 C        -0.087277         0.172226        -0.247886
 C         1.464520         0.112647        -0.204415
 O         2.051418        -1.107104         0.009200
 C         2.538154        -0.262722        -1.173870
 C         3.528093         0.835421        -0.616743
 C         3.611523         2.227725        -1.323658
 C         2.198533         2.848665        -1.060123
 O         2.132614         2.573719         0.316257
 C         2.384031         1.190182         0.507019
 H        -0.253543         0.032085         0.756691
 H        -0.590727         1.133459        -0.558514
 H        -0.611033        -0.723497        -0.758630
 H         2.326022        -0.893121        -2.030550
 H         4.478134         0.536587        -0.143024
 H         4.280516         2.838215        -0.731686
 H         3.848867         2.138950        -2.459078
 H         2.294132         3.938757        -1.255148
 H         1.318670         2.395691        -1.508812
 H         2.555356         1.092315         1.547437
