19
Iteration:   815charge 0 multiplicity 1
 C        -0.120712         0.134934        -0.183964
 C         1.406346         0.063508         0.041044
 O         2.194381        -1.132318        -0.062611
 C         2.442678        -0.212611        -1.070348
 C         3.419787         0.833984        -0.526728
 C         3.711733         2.085045        -1.401630
 C         2.464456         2.907295        -1.161787
 O         1.955020         2.616578         0.170326
 C         2.316758         1.257819         0.534711
 H        -0.718961        -0.568240         0.551884
 H        -0.562334         1.153413        -0.179692
 H        -0.316175        -0.249159        -1.240419
 H         2.278985        -0.406866        -2.146003
 H         4.256854         0.343946        -0.054542
 H         4.693819         2.502201        -1.047348
 H         3.891847         1.956781        -2.519484
 H         2.639735         3.960597        -1.058075
 H         1.552914         2.864820        -1.755561
 H         2.438079         1.297351         1.582005
