19
Iteration:  1740
 C         0.008247         0.247537        -0.429652
 C         1.456887         0.208749        -0.087429
 O         2.120355        -1.080795         0.039422
 C         2.613629        -0.241409        -0.992620
 C         3.496179         0.773250        -0.500184
 C         3.558719         1.988054        -1.481612
 C         2.243355         2.912168        -1.070216
 O         1.948519         2.538160         0.303790
 C         2.356051         1.248618         0.577770
 H        -0.507101        -0.207551         0.479417
 H        -0.378316         1.225979        -0.790712
 H        -0.128318        -0.561512        -1.152931
 H         2.532102        -0.668373        -2.053816
 H         4.513865         0.515557        -0.305753
 H         4.427628         2.636638        -1.289733
 H         3.319879         1.803118        -2.592291
 H         2.395555         3.988392        -1.172674
 H         1.541824         2.642862        -1.825053
 H         2.619333         1.108345         1.663036
