19
Iteration:  2502
 C        -0.101386         0.088625        -0.194428
 C         1.409881         0.104670        -0.148154
 O         2.195990        -1.167239         0.036339
 C         2.596620        -0.199747        -1.007422
 C         3.450351         0.861659        -0.436374
 C         3.569480         1.987530        -1.503247
 C         2.574737         3.169327        -0.962498
 O         1.764985         2.564786         0.053584
 C         2.309423         1.196347         0.480987
 H        -0.448594        -0.376712         0.813674
 H        -0.551146         1.167403        -0.303575
 H        -0.481353        -0.540574        -1.033569
 H         2.659697        -0.649588        -2.019800
 H         4.409981         0.388831        -0.141720
 H         4.674205         2.305446        -1.570144
 H         3.363400         1.660872        -2.498976
 H         2.907543         4.075853        -0.449033
 H         2.150205         3.415373        -1.943771
 H         2.459170         1.134733         1.591103
