19
Iteration:   166
 C        -0.083856         0.258567        -0.152877
 C         1.431367         0.161806        -0.097567
 O         2.075795        -1.166925        -0.072320
 C         2.480818        -0.233904        -1.061444
 C         3.474573         0.841596        -0.527048
 C         3.657745         2.107149        -1.357336
 C         2.404776         2.953810        -1.144049
 O         1.929140         2.496911         0.207747
 C         2.450241         1.184254         0.518170
 H        -0.649244         0.099753         0.753276
 H        -0.432581         1.257214        -0.457711
 H        -0.505803        -0.450155        -0.874658
 H         2.271238        -0.730368        -2.094013
 H         4.408984         0.552551        -0.097664
 H         4.643445         2.533541        -1.019878
 H         3.726174         1.801077        -2.371596
 H         2.488753         4.082195        -1.188556
 H         1.690556         2.556781        -1.868914
 H         2.725658         1.178511         1.549502
