19
Iteration:  3903charge 0 multiplicity 1
 C        -0.118228         0.021799        -0.231484
 C         1.372211        -0.013278        -0.014894
 O         2.213184        -1.125237         0.104944
 C         2.491721        -0.280805        -1.010967
 C         3.462937         0.926301        -0.605126
 C         3.504128         2.136660        -1.613473
 C         2.701625         3.109636        -0.818426
 O         1.810779         2.498149         0.075071
 C         2.311560         1.272579         0.412025
 H        -0.641738         0.232305         0.733590
 H        -0.231519         0.819821        -0.891786
 H        -0.432035        -0.896092        -0.676600
 H         2.461022        -0.699852        -2.002612
 H         4.469901         0.674673        -0.249938
 H         4.568991         2.409130        -1.890416
 H         2.948925         1.953474        -2.557683
 H         3.355104         3.827523        -0.229049
 H         2.118020         3.771342        -1.429829
 H         2.517453         1.303596         1.533629
