19
Iteration:  2724charge 0 multiplicity 1
 C        -0.026486         0.090204        -0.155950
 C         1.482911         0.137088        -0.156332
 O         2.183424        -1.170263         0.103675
 C         2.542159        -0.263004        -1.064465
 C         3.434375         0.869194        -0.485007
 C         3.583646         2.018868        -1.477030
 C         2.607223         3.137074        -0.884462
 O         1.688867         2.516823        -0.007847
 C         2.279711         1.215307         0.397231
 H        -0.431169        -0.546945         0.706754
 H        -0.335446         1.085306         0.075341
 H        -0.483723        -0.225462        -1.164268
 H         2.572052        -0.702050        -2.097032
 H         4.331854         0.526699        -0.043055
 H         4.552051         2.565413        -1.460973
 H         3.301983         1.782147        -2.496727
 H         3.253148         3.862664        -0.244977
 H         2.098893         3.776137        -1.711971
 H         2.565903         1.310921         1.441310
