19
Iteration:  1469
 C        -0.075767         0.228309        -0.419289
 C         1.410431         0.169061        -0.126741
 O         2.141238        -1.054240         0.065701
 C         2.610347        -0.258854        -1.022870
 C         3.504026         0.826503        -0.613772
 C         3.550642         2.115112        -1.343277
 C         2.232687         2.708307        -1.097043
 O         2.079203         2.617714         0.291220
 C         2.307695         1.235672         0.579322
 H        -0.443687         0.266034         0.579130
 H        -0.220043         1.171119        -0.922392
 H        -0.357452        -0.599300        -1.019040
 H         2.457901        -0.779326        -2.064849
 H         4.516041         0.690759        -0.155466
 H         4.526564         2.646313        -1.155072
 H         3.736498         1.815285        -2.507694
 H         2.079289         3.810616        -1.308901
 H         1.437825         2.215695        -1.597111
 H         2.497529         0.906774         1.604965
