19
Iteration:   840charge 0 multiplicity 1
 C        -0.082394         0.122578        -0.217901
 C         1.483527         0.127233        -0.110427
 O         2.080970        -1.219701        -0.062183
 C         2.535273        -0.145652        -1.057131
 C         3.480559         0.842830        -0.457035
 C         3.620132         2.041162        -1.392293
 C         2.423974         2.945039        -1.170152
 O         1.926745         2.618227         0.181314
 C         2.368198         1.256770         0.607720
 H        -0.347038        -0.111171         0.913264
 H        -0.513647         1.136815        -0.453254
 H        -0.655503        -0.598558        -0.910790
 H         2.352909        -0.403034        -2.156624
 H         4.415101         0.310227        -0.121685
 H         4.684199         2.443184        -1.246418
 H         3.647723         1.790225        -2.458192
 H         2.578316         4.057475        -1.167642
 H         1.542222         2.883923        -1.829068
 H         2.456653         1.276878         1.721769
