19
Iteration:  4043charge 0 multiplicity 1
 C         0.055621         0.335808        -0.171391
 C         1.470680         0.068805        -0.136347
 O         2.126002        -1.144046        -0.147182
 C         2.541578        -0.108118        -1.098730
 C         3.496662         0.906904        -0.461344
 C         3.610014         2.145533        -1.353354
 C         2.226125         2.658671        -1.219995
 O         1.940082         2.496293         0.254203
 C         2.333657         1.203629         0.624748
 H        -0.298214         0.137424         0.973465
 H        -0.162120         1.374558        -0.522676
 H        -0.624255        -0.305230        -0.681840
 H         2.519961        -0.301670        -2.163607
 H         4.428868         0.434736        -0.109092
 H         4.365909         2.832855        -0.831563
 H         3.915923         1.992280        -2.419978
 H         2.155921         3.810645        -1.226526
 H         1.505689         2.203528        -1.975471
 H         2.557918         1.087951         1.669607
