19
Iteration:  1809
 C        -0.027378         0.048177        -0.256451
 C         1.443444         0.204625        -0.232178
 O         2.073833        -1.022419         0.057193
 C         2.613036        -0.228570        -1.088994
 C         3.445176         0.750149        -0.488298
 C         3.603570         2.074859        -1.398210
 C         2.366281         2.961372        -1.057965
 O         1.988697         2.600621         0.257965
 C         2.285642         1.245964         0.458395
 H        -0.427713        -0.309629         0.777752
 H        -0.634320         0.890569        -0.753115
 H        -0.236568        -0.916832        -0.818557
 H         2.707807        -0.563527        -2.074535
 H         4.328490         0.323913         0.069744
 H         4.628966         2.448863        -1.204695
 H         3.461493         1.664382        -2.305697
 H         2.601792         4.082209        -1.104422
 H         1.569884         2.783825        -1.761871
 H         2.476619         1.119547         1.530586
