19
Iteration:  2016
 C        -0.077744         0.179233        -0.385048
 C         1.468217         0.120529        -0.181737
 O         2.131295        -1.039456         0.092454
 C         2.552854        -0.386903        -1.061269
 C         3.533483         0.880516        -0.468557
 C         3.533489         2.078854        -1.472180
 C         2.306847         2.964832        -0.997230
 O         1.972725         2.571886         0.286445
 C         2.362078         1.204982         0.506214
 H        -0.545644         0.214017         0.590163
 H        -0.294054         0.961385        -1.108069
 H        -0.440710        -0.725147        -0.744694
 H         2.662757        -0.710353        -2.116127
 H         4.549141         0.582538        -0.157145
 H         4.574579         2.551869        -1.300047
 H         3.469437         1.842110        -2.579305
 H         2.445973         4.090801        -1.055228
 H         1.617064         2.670608        -1.803241
 H         2.381644         0.945235         1.570677
