19
Iteration:  4017charge 0 multiplicity 1
 C        -0.119802         0.217468        -0.102776
 C         1.431358         0.176678        -0.075741
 O         2.204637        -1.096652        -0.091669
 C         2.419741        -0.136028        -1.122493
 C         3.541848         0.825601        -0.548342
 C         3.682066         2.163726        -1.244700
 C         2.307399         2.698757        -1.120427
 O         1.880956         2.526554         0.167256
 C         2.461607         1.240967         0.483656
 H        -0.577314        -0.391126         0.595708
 H        -0.627439         1.236492        -0.231100
 H        -0.420230        -0.359118        -1.042635
 H         2.412361        -0.440880        -2.157485
 H         4.408993         0.232246        -0.229033
 H         4.429052         2.719408        -0.757798
 H         3.924224         2.159686        -2.285680
 H         2.233778         3.756099        -1.272169
 H         1.668231         2.246599        -1.987302
 H         2.724884         1.161768         1.558870
