19
Iteration:  1543
 C        -0.133585         0.055454        -0.249422
 C         1.370426         0.033956         0.006573
 O         2.232417        -1.113727         0.055359
 C         2.434345        -0.250791        -1.047900
 C         3.425471         0.879387        -0.552648
 C         3.661332         2.108492        -1.432912
 C         2.558151         3.026583        -1.024194
 O         1.858269         2.556195         0.056386
 C         2.285398         1.283969         0.516166
 H        -0.430919        -0.191341         0.784549
 H        -0.426809         0.999524        -0.712291
 H        -0.284221        -0.729124        -1.007983
 H         2.376951        -0.828500        -2.000248
 H         4.418645         0.513262        -0.384633
 H         4.581872         2.469773        -1.017151
 H         3.901562         2.026256        -2.429520
 H         3.144176         3.950158        -0.779961
 H         1.748042         3.194655        -1.811850
 H         2.528237         1.314261         1.614196
