19
Iteration:   904charge 0 multiplicity 1
 C        -0.038366         0.169163        -0.344048
 C         1.390591         0.111689        -0.114964
 O         2.128704        -1.129273         0.054676
 C         2.415763        -0.321886        -1.050819
 C         3.395889         0.794430        -0.604708
 C         3.623469         2.139725        -1.340825
 C         2.258494         2.925494        -1.090792
 O         2.087506         2.609375         0.305983
 C         2.459306         1.272442         0.482653
 H        -0.598515         0.614169         0.538761
 H        -0.146542         0.838104        -1.204629
 H        -0.350090        -0.849767        -0.699807
 H         2.523623        -0.697385        -2.122321
 H         4.340857         0.568264        -0.070101
 H         4.546436         2.739261        -0.944995
 H         3.748851         1.905703        -2.425264
 H         2.345245         4.008325        -1.230489
 H         1.604217         2.362530        -1.743266
 H         2.699597         1.180402         1.532674
