19
Iteration:  3385charge 0 multiplicity 1
 C        -0.048047         0.283780        -0.175802
 C         1.501410         0.199577        -0.020045
 O         2.151812        -1.134235        -0.157672
 C         2.514863        -0.052565        -1.097069
 C         3.554384         0.784739        -0.486637
 C         3.622205         2.090773        -1.250694
 C         2.200341         2.667922        -1.233400
 O         1.857413         2.513536         0.195942
 C         2.449077         1.236247         0.585445
 H        -0.590421         0.208419         0.768313
 H        -0.137783         1.247235        -0.631827
 H        -0.446608        -0.414650        -1.033916
 H         2.268305        -0.354939        -2.123840
 H         4.509005         0.466789        -0.092797
 H         4.393731         2.779164        -0.791522
 H         3.954370         1.732988        -2.248139
 H         2.323601         3.735065        -1.385278
 H         1.449568         2.172379        -1.915852
 H         2.830687         1.274246         1.611557
