19
Iteration:  1457
 C         0.022363         0.206490        -0.431263
 C         1.465681         0.222486        -0.144010
 O         2.116913        -1.030534         0.123930
 C         2.493582        -0.213368        -1.038146
 C         3.532567         0.802801        -0.572238
 C         3.584136         2.055355        -1.415265
 C         2.204338         2.729834        -1.111394
 O         2.015294         2.569219         0.367832
 C         2.380925         1.241738         0.538017
 H        -0.728880         0.082174         0.319962
 H        -0.309300         1.102789        -0.945585
 H        -0.230029        -0.602021        -1.129895
 H         2.325787        -0.543460        -2.115070
 H         4.499121         0.302026        -0.377015
 H         4.259314         2.737512        -0.848248
 H         3.765979         2.058498        -2.586656
 H         2.231811         3.815592        -1.438301
 H         1.450036         2.141452        -1.624364
 H         2.656864         1.189947         1.614939
