19
Iteration:  3095charge 0 multiplicity 1
 C        -0.066994         0.022580        -0.182315
 C         1.419421         0.105076        -0.073145
 O         2.175385        -1.076842         0.095374
 C         2.422565        -0.309208        -1.102195
 C         3.477974         0.846126        -0.637320
 C         3.690746         2.191478        -1.436211
 C         2.518770         3.064840        -1.057215
 O         1.863763         2.552631         0.211521
 C         2.299743         1.196526         0.451773
 H        -0.703661        -0.501660         0.614491
 H        -0.505838         1.010110        -0.304850
 H        -0.126554        -0.675158        -1.080973
 H         2.231350        -0.830813        -2.054675
 H         4.369077         0.438774        -0.126772
 H         4.697075         2.576646        -1.148190
 H         3.583049         1.849967        -2.480317
 H         2.724038         4.165438        -0.890688
 H         1.876835         3.077350        -1.918116
 H         2.315494         1.313287         1.553832
