19
Iteration:  3129charge 0 multiplicity 1
 C        -0.054561         0.124687        -0.105343
 C         1.446868         0.177766        -0.183704
 O         2.153524        -1.105112        -0.062856
 C         2.597684        -0.246498        -1.132790
 C         3.460977         0.839847        -0.477623
 C         3.564040         2.072017        -1.327895
 C         2.359406         2.852230        -1.192280
 O         1.964520         2.634648         0.270559
 C         2.286538         1.260921         0.497811
 H        -0.440538        -0.489715         0.765212
 H        -0.617547         1.101068        -0.167516
 H        -0.377093        -0.321980        -1.064259
 H         2.575732        -0.685203        -2.133109
 H         4.412189         0.377751        -0.227097
 H         4.321161         2.763793        -0.946845
 H         3.935777         1.650187        -2.332072
 H         2.443583         3.959860        -1.230098
 H         1.647914         2.430602        -1.894865
 H         2.514127         1.218751         1.600881
