19
Iteration:  4164charge 0 multiplicity 1
 C        -0.146255        -0.080764        -0.329496
 C         1.411148         0.223448        -0.266018
 O         2.131638        -1.067861         0.045340
 C         2.604608        -0.231024        -1.035973
 C         3.438017         0.872186        -0.541712
 C         3.467582         2.041272        -1.514101
 C         2.506125         3.057990        -0.959891
 O         2.036980         2.614209         0.351723
 C         2.311347         1.215865         0.487172
 H        -0.501067        -0.523698         0.703571
 H        -0.758137         0.716883        -0.648838
 H        -0.273851        -0.897820        -1.054532
 H         2.678902        -0.826448        -2.013556
 H         4.471744         0.684425        -0.217271
 H         4.530594         2.366023        -1.492199
 H         3.175310         1.728993        -2.508108
 H         3.131140         3.940005        -0.627871
 H         1.576086         3.276281        -1.493904
 H         2.396614         1.059086         1.555526
