19
Iteration:  4367
 C        -0.047502         0.187331        -0.273136
 C         1.448710         0.190604        -0.160986
 O         2.226328        -1.126813         0.026580
 C         2.521020        -0.342258        -1.043181
 C         3.466036         0.815300        -0.649814
 C         3.538024         2.046181        -1.420136
 C         2.436153         3.111880        -0.872716
 O         1.792241         2.451661         0.196373
 C         2.412826         1.237116         0.416509
 H        -0.410032        -0.114668         0.701142
 H        -0.553805         1.247572        -0.373237
 H        -0.525421        -0.503391        -0.920253
 H         2.434719        -0.800800        -2.078184
 H         4.419432         0.407253        -0.246637
 H         4.503213         2.530308        -1.027154
 H         3.643371         2.139423        -2.542081
 H         2.898166         3.989283        -0.408102
 H         1.685908         3.269243        -1.565583
 H         2.536580         1.121626         1.561027
