19
Iteration:   150charge 0 multiplicity 1
 C        -0.051783         0.321914        -0.147020
 C         1.414423         0.073352        -0.213065
 O         2.158167        -1.061065         0.039514
 C         2.486331        -0.143724        -1.170102
 C         3.526600         0.750526        -0.544808
 C         3.672418         2.069475        -1.389022
 C         2.338124         2.809052        -1.078617
 O         1.989722         2.528034         0.220532
 C         2.222339         1.193436         0.511465
 H        -0.252790         0.256762         0.968709
 H        -0.177843         1.380207        -0.412934
 H        -0.597628        -0.467619        -0.706888
 H         2.540403        -0.449540        -2.130747
 H         4.433575         0.112701        -0.224346
 H         4.389794         2.750555        -0.981539
 H         3.888400         1.981276        -2.519685
 H         2.664608         3.814860        -0.988866
 H         1.475577         2.737383        -1.824707
 H         2.203045         0.964377         1.663349
