19
Iteration:   778charge 0 multiplicity 1
 C        -0.161446         0.111616        -0.102192
 C         1.372585         0.216414        -0.175287
 O         2.079702        -0.991875         0.036284
 C         2.573878        -0.301520        -1.141431
 C         3.476677         0.771900        -0.595818
 C         3.735372         2.127011        -1.322988
 C         2.356212         2.892911        -1.096063
 O         2.021142         2.554112         0.210196
 C         2.322774         1.217323         0.422785
 H        -0.435803        -0.688168         0.495639
 H        -0.676249         0.924170         0.386850
 H        -0.522471        -0.258848        -1.022256
 H         2.434058        -0.896940        -2.061404
 H         4.352807         0.390074        -0.020176
 H         4.357880         2.742811        -0.701278
 H         4.128231         2.137387        -2.351430
 H         2.508914         4.004309        -1.354988
 H         1.771851         2.654211        -2.069435
 H         2.589186         1.017020         1.515728
