19
Iteration:  2195
 C        -0.093281         0.268392        -0.132287
 C         1.440788         0.078218        -0.151651
 O         2.172882        -1.135132         0.026259
 C         2.561636        -0.290213        -1.182625
 C         3.402688         0.828285        -0.534697
 C         3.699937         2.223254        -1.257532
 C         2.387723         2.972558        -1.161271
 O         1.841295         2.438293         0.131629
 C         2.392300         1.206931         0.510796
 H        -0.469472         0.080338         0.839973
 H        -0.400535         1.229329        -0.380849
 H        -0.624733        -0.442897        -0.818518
 H         2.256322        -0.791044        -2.071050
 H         4.375347         0.428273        -0.117262
 H         4.524430         2.945111        -0.820405
 H         4.109685         1.970940        -2.261141
 H         2.518200         3.991579        -0.962611
 H         1.663887         2.832491        -1.954312
 H         2.551799         0.894191         1.557510
