19
Iteration:  3573
 C         0.016070         0.124144        -0.285002
 C         1.502344         0.122840        -0.132106
 O         2.228322        -1.082237         0.187847
 C         2.531661        -0.426514        -0.993877
 C         3.453018         0.826878        -0.641354
 C         3.356741         2.044433        -1.619522
 C         2.713880         3.158312        -0.698652
 O         1.689325         2.502000        -0.004291
 C         2.302962         1.273051         0.454364
 H        -0.472212        -0.034075         0.758562
 H        -0.260706         1.026226        -0.879033
 H        -0.245548        -0.689746        -0.967258
 H         2.158842        -0.757694        -1.950575
 H         4.481958         0.547422        -0.266581
 H         4.253830         2.544030        -2.000226
 H         2.713333         1.665507        -2.355061
 H         3.578051         3.507463        -0.054370
 H         2.267520         4.070447        -1.142935
 H         2.550645         1.365472         1.543394
