19
Iteration:  3712charge 0 multiplicity 1
 C        -0.061542         0.178741        -0.116060
 C         1.428844         0.099919        -0.001156
 O         2.231077        -1.128839         0.087636
 C         2.496541        -0.322966        -1.060902
 C         3.488960         0.817072        -0.655367
 C         3.519259         2.103343        -1.541973
 C         2.695472         3.199795        -0.688751
 O         1.661155         2.324723        -0.154597
 C         2.342998         1.252329         0.438378
 H        -0.565277         0.167293         0.787666
 H        -0.386625         1.004017        -0.743873
 H        -0.510155        -0.696653        -0.622786
 H         2.297361        -0.534177        -2.103233
 H         4.453012         0.669789        -0.190386
 H         4.532238         2.443431        -1.482849
 H         3.119714         2.116044        -2.643861
 H         3.299643         3.758215         0.075973
 H         2.177467         3.922315        -1.350822
 H         2.608309         1.504630         1.477158
