19
Iteration:  4804charge 0 multiplicity 1
 C        -0.097858        -0.183635        -0.151409
 C         1.317307        -0.010446        -0.167236
 O         2.258398        -0.997191         0.160285
 C         2.446248        -0.278676        -1.148520
 C         3.314207         0.856820        -0.654535
 C         3.541457         2.117854        -1.615464
 C         2.904994         3.199255        -0.631147
 O         1.811816         2.567077         0.032165
 C         2.206622         1.302388         0.406929
 H        -0.527616        -0.227493         0.835763
 H        -0.565206         0.704795        -0.708408
 H        -0.419787        -1.087296        -0.754377
 H         2.623259        -0.875860        -2.103538
 H         4.272087         0.600877        -0.170310
 H         4.572445         2.343713        -1.725961
 H         3.023996         1.993211        -2.563144
 H         3.583112         3.536407         0.106716
 H         2.482729         4.049693        -1.284687
 H         2.462858         1.249017         1.451668
