19
Iteration:  3198charge 0 multiplicity 1
 C         0.063859         0.277840        -0.235769
 C         1.506484         0.101550        -0.125354
 O         2.177349        -1.209194         0.056624
 C         2.465414        -0.226261        -1.119562
 C         3.423842         0.831945        -0.549072
 C         3.633152         2.138691        -1.303539
 C         2.278892         2.853202        -1.197330
 O         1.852495         2.544466         0.251155
 C         2.398323         1.253094         0.526450
 H        -0.438311         0.315564         0.700697
 H        -0.197794         1.206930        -0.802278
 H        -0.386385        -0.486807        -0.846642
 H         2.452363        -0.428800        -2.188661
 H         4.432484         0.554817        -0.397802
 H         4.515716         2.625544        -0.809254
 H         3.675433         1.984048        -2.489166
 H         2.535559         3.877199        -1.302650
 H         1.399826         2.534440        -1.699370
 H         2.527438         1.129228         1.598133
