19
Iteration:  3748
 C        -0.028648         0.079196        -0.120291
 C         1.493969         0.049092        -0.180756
 O         2.186648        -1.114272         0.077592
 C         2.590497        -0.321987        -1.048583
 C         3.413572         0.890167        -0.567661
 C         3.488419         2.039701        -1.590840
 C         2.724153         3.177932        -0.790894
 O         1.730564         2.519307         0.061833
 C         2.175078         1.255983         0.376282
 H        -0.253802        -0.009888         1.021217
 H        -0.417691         1.123077        -0.339182
 H        -0.453420        -0.689101        -0.662024
 H         2.262807        -0.670600        -2.059941
 H         4.303075         0.517789        -0.000419
 H         4.607438         2.162000        -1.556292
 H         3.299257         1.795215        -2.647495
 H         3.357311         3.915597        -0.264762
 H         2.114129         3.670491        -1.521799
 H         2.447471         1.104899         1.495706
