19
Iteration:  1460charge 0 multiplicity 1
 C        -0.001082         0.205041        -0.434274
 C         1.476362         0.205349        -0.151114
 O         2.118142        -1.026045         0.110883
 C         2.518746        -0.223618        -1.011847
 C         3.518321         0.816269        -0.607512
 C         3.582500         2.056732        -1.396853
 C         2.209479         2.716155        -1.104351
 O         2.033557         2.575291         0.360467
 C         2.339481         1.242099         0.550836
 H        -0.727383         0.144217         0.378861
 H        -0.266259         1.159385        -0.911795
 H        -0.253989        -0.606578        -1.068550
 H         2.350391        -0.480903        -2.098119
 H         4.573941         0.436107        -0.372618
 H         4.356880         2.693601        -0.862392
 H         3.736574         2.024361        -2.526008
 H         2.192839         3.728984        -1.495194
 H         1.444844         2.205700        -1.634076
 H         2.677541         1.137409         1.555080
