19
Iteration:  1354charge 0 multiplicity 1
 C        -0.086963        -0.024744        -0.152741
 C         1.369450         0.145963        -0.046811
 O         2.140411        -1.126719         0.039040
 C         2.426685        -0.238451        -1.097877
 C         3.450723         0.813313        -0.542137
 C         3.726182         2.161119        -1.369156
 C         2.557425         3.053554        -1.070591
 O         1.845299         2.545764         0.117935
 C         2.362047         1.269786         0.446874
 H        -0.620928        -0.263309         0.830244
 H        -0.656296         0.887833        -0.568757
 H        -0.389335        -0.777870        -0.924933
 H         2.329669        -0.626705        -2.139763
 H         4.397165         0.541004        -0.053877
 H         4.746114         2.456787        -1.095585
 H         3.804686         2.052771        -2.441852
 H         2.712083         4.110812        -1.076984
 H         1.850230         2.832159        -1.964689
 H         2.619494         1.359015         1.546550
