19
Iteration:  2257
 C        -0.183191         0.020855        -0.266087
 C         1.436131         0.179485        -0.127262
 O         2.087009        -1.104582        -0.094728
 C         2.577069        -0.136995        -1.019680
 C         3.551937         0.874319        -0.486799
 C         3.638446         2.058445        -1.382470
 C         2.372251         2.848657        -1.100241
 O         2.007032         2.618833         0.270844
 C         2.340584         1.281251         0.534430
 H        -0.708792        -0.076845         0.715494
 H        -0.660401         0.802859        -0.889336
 H        -0.103491        -1.016441        -0.782935
 H         2.435082        -0.265765        -2.048467
 H         4.313509         0.204016        -0.055952
 H         4.450419         2.632922        -1.075786
 H         3.604800         1.817706        -2.406030
 H         2.597886         3.928276        -1.358327
 H         1.464349         2.538999        -1.687469
 H         2.541704         1.145235         1.582058
