19
Iteration:  3884
 C        -0.017518         0.144001        -0.256325
 C         1.487402         0.127349        -0.126529
 O         2.283204        -1.134018         0.169475
 C         2.532677        -0.330438        -1.059843
 C         3.373732         0.823659        -0.607032
 C         3.329167         2.036620        -1.546263
 C         2.757141         3.259021        -0.749405
 O         1.719817         2.473009        -0.024410
 C         2.322199         1.199708         0.466884
 H        -0.373034         0.411860         0.726666
 H        -0.426470         0.892392        -0.956032
 H        -0.399396        -0.951296        -0.574562
 H         2.485607        -0.875270        -2.070211
 H         4.338318         0.466802        -0.193076
 H         4.313226         2.183063        -1.931282
 H         2.683710         1.771167        -2.345715
 H         3.368109         3.755982        -0.021247
 H         2.216550         4.093354        -1.345936
 H         2.558691         1.149267         1.559819
