19
Iteration:   569
 C        -0.095673         0.218449        -0.159212
 C         1.415471         0.221742        -0.187570
 O         2.019563        -1.031288         0.073489
 C         2.581769        -0.287983        -1.136558
 C         3.495200         0.825170        -0.574860
 C         3.623311         2.124406        -1.385412
 C         2.359161         2.882877        -1.093274
 O         2.013974         2.481572         0.226327
 C         2.364779         1.147621         0.466744
 H        -0.408125        -0.446574         0.615183
 H        -0.464550         1.183471         0.105820
 H        -0.338755        -0.162651        -1.135275
 H         2.535524        -0.888894        -2.046241
 H         4.503311         0.490932        -0.334731
 H         4.484411         2.610469        -0.891928
 H         3.750354         2.032848        -2.433539
 H         2.541191         3.964791        -1.054151
 H         1.518918         2.826226        -1.682637
 H         2.644614         1.041071         1.532970
