19
Iteration:   344
 C        -0.070558         0.216012        -0.144350
 C         1.427573         0.182167        -0.277288
 O         1.948561        -1.096371         0.044441
 C         2.566262        -0.310846        -1.108400
 C         3.472053         0.857469        -0.579690
 C         3.680874         2.163944        -1.406768
 C         2.322648         2.837847        -1.090481
 O         2.095864         2.547628         0.365783
 C         2.335701         1.180901         0.423400
 H        -0.206136        -0.024494         0.906540
 H        -0.420574         1.218788        -0.470964
 H        -0.519221        -0.567905        -0.774184
 H         2.640410        -0.636014        -2.073957
 H         4.431826         0.456421        -0.035952
 H         4.453702         2.865106        -1.060444
 H         3.922706         2.229080        -2.509818
 H         2.229786         3.947441        -1.310612
 H         1.515480         2.378742        -1.761810
 H         2.658894         0.826129         1.365845
