19
Iteration:  4806charge 0 multiplicity 1
 C        -0.096600        -0.181333        -0.149577
 C         1.332384         0.000552        -0.177961
 O         2.253320        -1.009340         0.161259
 C         2.450130        -0.256175        -1.151109
 C         3.330530         0.861234        -0.660953
 C         3.540076         2.120201        -1.612623
 C         2.912463         3.172223        -0.637391
 O         1.795072         2.567885         0.024310
 C         2.197178         1.303461         0.420738
 H        -0.607058        -0.197013         0.899509
 H        -0.575204         0.634734        -0.666919
 H        -0.409977        -1.093711        -0.742436
 H         2.547948        -0.836437        -2.082940
 H         4.272120         0.625657        -0.197524
 H         4.601527         2.327238        -1.768995
 H         3.046532         2.010148        -2.544232
 H         3.526831         3.578657         0.166367
 H         2.546144         3.987347        -1.295740
 H         2.509986         1.232617         1.515159
