19
Iteration:  3460charge 0 multiplicity 1
 C        -0.065088        -0.108946        -0.200001
 C         1.381009         0.062744        -0.182407
 O         2.169596        -1.028076         0.102662
 C         2.458569        -0.322115        -1.044929
 C         3.363114         0.843309        -0.566080
 C         3.608201         2.070483        -1.451942
 C         2.572137         3.124340        -0.999787
 O         1.969899         2.645614         0.251918
 C         2.321072         1.315927         0.375338
 H        -0.397319        -0.554468         0.747853
 H        -0.487625         0.872670        -0.453798
 H        -0.391901        -0.702488        -1.162702
 H         2.286655        -0.769661        -2.038377
 H         4.283468         0.421780        -0.266577
 H         4.538025         2.426207        -1.312666
 H         3.590291         1.730384        -2.483802
 H         2.922918         4.150103        -0.931020
 H         1.691723         3.200088        -1.684922
 H         2.299985         0.968347         1.388216
