19
Iteration:  3428charge 0 multiplicity 1
 C        -0.181426         0.037140        -0.137009
 C         1.365681         0.081502        -0.236613
 O         2.146475        -1.038281         0.028114
 C         2.523899        -0.277692        -1.098845
 C         3.498351         0.862241        -0.535057
 C         3.713868         2.130192        -1.367817
 C         2.391422         2.942172        -1.111550
 O         1.970091         2.609086         0.250122
 C         2.367072         1.274660         0.446106
 H        -0.496846        -0.399385         0.848972
 H        -0.484756         1.089287        -0.187948
 H        -0.694540        -0.726541        -0.882551
 H         2.574983        -0.703286        -2.118131
 H         4.388305         0.366047        -0.233047
 H         4.512619         2.670796        -0.970934
 H         3.792759         1.920714        -2.435036
 H         2.522045         4.022079        -1.142753
 H         1.599086         2.461390        -1.736265
 H         2.511637         1.015426         1.525897
