19
Iteration:  3316
 C        -0.066208         0.048518        -0.266113
 C         1.417788         0.135150        -0.179631
 O         2.157908        -1.064196         0.114154
 C         2.472124        -0.284424        -1.088913
 C         3.467073         0.858177        -0.583961
 C         3.637978         2.123320        -1.388163
 C         2.378729         2.967668        -1.106972
 O         2.001236         2.606273         0.297137
 C         2.338108         1.219345         0.454995
 H        -0.235934        -0.321988         0.769715
 H        -0.631275         1.020423        -0.544374
 H        -0.448120        -0.710579        -0.978932
 H         2.407289        -0.715713        -2.093991
 H         4.383345         0.426996        -0.208635
 H         4.484818         2.647966        -1.112966
 H         3.589941         1.953285        -2.468139
 H         2.587429         4.051292        -1.123537
 H         1.569695         2.593761        -1.824581
 H         2.238756         1.018098         1.547383
