19
Iteration:  4570charge 0 multiplicity 1
 C        -0.135371         0.101600        -0.078293
 C         1.348053         0.134056        -0.129421
 O         2.198332        -1.122697        -0.072419
 C         2.461390        -0.212437        -1.170253
 C         3.424430         0.838139        -0.621122
 C         3.784662         2.221050        -1.248955
 C         2.372429         2.866388        -1.173928
 O         1.939348         2.613153         0.250633
 C         2.373045         1.186011         0.464604
 H        -0.420564        -0.355088         0.951355
 H        -0.561890         1.138586        -0.012463
 H        -0.466713        -0.532401        -0.919522
 H         2.425732        -0.544446        -2.235219
 H         4.304212         0.285763        -0.157867
 H         4.261535         2.811052        -0.468377
 H         4.243153         2.093185        -2.228563
 H         2.473467         3.944041        -1.293784
 H         1.579863         2.331397        -1.803107
 H         2.649888         0.811826         1.429415
