19
Iteration:   336charge 0 multiplicity 1
 C        -0.003621         0.237255        -0.167919
 C         1.430482         0.132591        -0.251244
 O         1.902996        -1.132659         0.016456
 C         2.564553        -0.289752        -1.124403
 C         3.512771         0.843567        -0.601881
 C         3.696325         2.202756        -1.394216
 C         2.318121         2.834816        -1.072033
 O         2.077218         2.600296         0.322729
 C         2.367596         1.202436         0.468909
 H        -0.303384         0.096503         0.901347
 H        -0.572844         1.121878        -0.415952
 H        -0.485540        -0.618084        -0.640306
 H         2.522420        -0.889428        -2.003034
 H         4.553187         0.435967        -0.248925
 H         4.532078         2.789565        -0.988928
 H         3.821995         2.017052        -2.527289
 H         1.989621         3.872415        -1.082206
 H         1.504179         2.265306        -1.640121
 H         2.357046         0.911043         1.561591
