19
Iteration:  3444charge 0 multiplicity 1
 C        -0.118632        -0.019156        -0.180032
 C         1.376133         0.219219        -0.244666
 O         2.209388        -1.091280         0.124318
 C         2.504063        -0.275697        -1.110627
 C         3.416032         0.784777        -0.605479
 C         3.612751         2.117371        -1.414111
 C         2.455590         3.037222        -1.063726
 O         2.037930         2.608207         0.218959
 C         2.205943         1.191441         0.463575
 H        -0.327484        -0.481830         0.810247
 H        -0.773237         0.861411        -0.102000
 H        -0.444920        -0.649824        -0.920076
 H         2.606786        -0.917798        -1.993202
 H         4.375916         0.531444        -0.039966
 H         4.680093         2.584256        -1.035652
 H         3.786012         2.060644        -2.519186
 H         2.810219         4.100000        -0.893923
 H         1.728625         3.188369        -1.860413
 H         2.412591         1.235951         1.551700
