19
Iteration:  4210charge 0 multiplicity 1
 C        -0.090175         0.249708        -0.234433
 C         1.414799         0.053424        -0.140699
 O         2.210636        -1.183017        -0.007482
 C         2.542240        -0.229629        -1.027380
 C         3.450651         0.835986        -0.559372
 C         3.556392         2.113120        -1.436080
 C         2.458536         3.076278        -0.965957
 O         1.843223         2.452565         0.188720
 C         2.370762         1.179308         0.449925
 H        -0.493537        -0.169874         0.746270
 H        -0.262122         1.284536        -0.430121
 H        -0.536242        -0.452731        -1.057424
 H         2.658018        -0.580668        -2.038020
 H         4.412224         0.558722        -0.159161
 H         4.426292         2.665136        -1.047913
 H         3.665163         2.100058        -2.555367
 H         2.671297         4.059982        -0.569696
 H         1.640667         3.113430        -1.704024
 H         2.748887         1.203265         1.512498
