19
Iteration:  1645charge 0 multiplicity 1
 C        -0.117174         0.078427        -0.163899
 C         1.384446         0.098913        -0.001327
 O         2.188635        -1.128479        -0.006237
 C         2.426455        -0.210144        -1.149385
 C         3.482827         0.834065        -0.474885
 C         3.721985         2.132856        -1.279270
 C         2.495454         2.994294        -1.130186
 O         1.823958         2.526629         0.049610
 C         2.377635         1.266332         0.448123
 H        -0.493224        -0.202259         0.807372
 H        -0.486885         1.028252        -0.513806
 H        -0.328907        -0.793329        -0.710013
 H         2.192641        -0.633482        -2.130553
 H         4.266112         0.289846         0.114492
 H         4.549396         2.705591        -0.836869
 H         3.813750         1.902445        -2.290193
 H         2.777403         4.081927        -0.973802
 H         1.836922         3.005661        -2.034284
 H         2.643134         1.350287         1.508766
