19
Iteration:  3836charge 0 multiplicity 1
 C        -0.093419        -0.034586        -0.252541
 C         1.410810         0.054398        -0.159059
 O         2.236391        -1.080501         0.212891
 C         2.571059        -0.389024        -1.011968
 C         3.384267         0.855958        -0.593485
 C         3.285891         2.131367        -1.631987
 C         2.855036         3.209791        -0.727034
 O         1.875180         2.561021         0.033625
 C         2.234549         1.237716         0.390476
 H        -0.759257        -0.061226         0.666634
 H        -0.419725         0.871548        -0.781954
 H        -0.353733        -0.737560        -0.954943
 H         2.630727        -1.150811        -1.731609
 H         4.421542         0.687194        -0.257566
 H         4.252243         2.518886        -2.110562
 H         2.534129         1.944833        -2.440146
 H         3.686570         3.786406        -0.188911
 H         2.300334         3.969722        -1.209751
 H         2.377264         1.137112         1.522874
