19
Iteration:  2746charge 0 multiplicity 1
 C        -0.164626        -0.011202        -0.216669
 C         1.420384         0.061910        -0.030134
 O         2.230381        -1.112131         0.099402
 C         2.523557        -0.292535        -1.061664
 C         3.457545         0.854638        -0.595339
 C         3.615411         2.109739        -1.531066
 C         2.696102         3.211014        -0.856072
 O         1.787641         2.467992        -0.008043
 C         2.206523         1.291646         0.504129
 H        -0.682105        -0.546080         0.667702
 H        -0.439253         1.009624        -0.111078
 H        -0.563855        -0.435492        -1.209398
 H         2.510672        -0.834117        -2.068752
 H         4.430838         0.565628        -0.300980
 H         4.727648         2.308808        -1.557853
 H         3.251690         1.848300        -2.530127
 H         3.200481         4.035026        -0.215864
 H         2.012332         3.729887        -1.644872
 H         2.435102         1.361568         1.579442
