19
Iteration:  4747
 C        -0.090487        -0.013020        -0.289612
 C         1.427545         0.141835        -0.150257
 O         2.185160        -1.069663         0.103887
 C         2.567906        -0.277578        -1.018646
 C         3.436607         0.923218        -0.560738
 C         3.220746         1.974226        -1.574808
 C         2.825144         3.149043        -0.767535
 O         1.841894         2.516458         0.143928
 C         2.309332         1.212876         0.446685
 H        -0.512587        -0.507106         0.508141
 H        -0.485481         1.008888        -0.730625
 H         0.024037        -0.747051        -1.098717
 H         2.512506        -0.571644        -2.099498
 H         4.490322         0.919115        -0.168803
 H         4.198820         2.248521        -2.003414
 H         2.579215         1.850940        -2.478035
 H         3.655123         3.602244        -0.283038
 H         2.443472         4.008580        -1.467510
 H         2.527119         1.152933         1.472641
