19
Iteration:   710
 C        -0.090505         0.210999        -0.290253
 C         1.490060         0.152986        -0.039808
 O         2.058692        -1.092357         0.001403
 C         2.405636        -0.106415        -1.073585
 C         3.547346         0.812819        -0.520418
 C         3.673331         2.092352        -1.402110
 C         2.369602         2.862902        -1.069575
 O         1.921627         2.460792         0.177189
 C         2.451000         1.194385         0.556157
 H        -0.655580         0.162194         0.624378
 H        -0.412005         1.049040        -0.804031
 H        -0.257293        -0.711820        -0.782742
 H         2.229570        -0.401091        -2.131343
 H         4.514167         0.386969        -0.104379
 H         4.609085         2.655189        -1.190336
 H         3.599396         1.810353        -2.407407
 H         2.411448         4.009325        -1.099021
 H         1.482021         2.695837        -1.846368
 H         2.870008         1.249317         1.593687
