19
Iteration:  2165
 C        -0.093559         0.071275        -0.138230
 C         1.486192         0.141980        -0.120472
 O         2.142367        -1.128957        -0.134518
 C         2.530065        -0.163878        -1.126095
 C         3.506382         0.756317        -0.465909
 C         3.745301         2.080590        -1.339106
 C         2.411134         2.884068        -1.144202
 O         1.802595         2.615608         0.185319
 C         2.340061         1.328658         0.607859
 H        -0.592831        -0.286368         0.787140
 H        -0.584889         1.079575        -0.138921
 H        -0.471054        -0.512621        -0.935749
 H         2.357370        -0.526355        -2.146922
 H         4.430467         0.376167        -0.123765
 H         4.571899         2.696706        -1.100806
 H         3.706470         1.702387        -2.397394
 H         2.532106         3.981617        -1.176602
 H         1.654200         2.638682        -1.968644
 H         2.405688         1.321079         1.730871
