19
Iteration:  2815charge 0 multiplicity 1
 C        -0.164674        -0.101492        -0.153649
 C         1.382169         0.014828        -0.212321
 O         2.246343        -1.075916         0.116280
 C         2.608661        -0.363801        -1.031339
 C         3.333337         0.886339        -0.625694
 C         3.437947         2.068843        -1.565187
 C         2.965446         3.231447        -0.683001
 O         1.722788         2.563465        -0.047099
 C         2.236455         1.335145         0.440345
 H        -0.615466         0.229294         0.833715
 H        -0.608388         0.539616        -1.046576
 H        -0.456482        -1.172332        -0.254768
 H         2.652242        -0.914780        -1.961775
 H         4.299955         0.725062        -0.104964
 H         4.409513         2.292736        -1.870382
 H         2.736337         2.107956        -2.357742
 H         3.708472         3.651838         0.104983
 H         2.578679         4.090081        -1.386450
 H         2.425129         1.237258         1.528914
