19
Iteration:  1408
 C        -0.059994         0.182013        -0.257663
 C         1.414956         0.090839        -0.196945
 O         2.198808        -1.183667         0.032987
 C         2.562598        -0.279782        -1.073946
 C         3.471791         0.827900        -0.465879
 C         3.667112         2.061047        -1.472837
 C         2.318350         2.954448        -1.096919
 O         1.947414         2.686168         0.264644
 C         2.252004         1.228670         0.531659
 H        -0.527445        -0.202103         0.707537
 H        -0.442037         1.247579        -0.353836
 H        -0.690502        -0.335268        -1.025636
 H         2.764102        -0.788547        -2.021456
 H         4.414316         0.602079         0.085279
 H         4.618501         2.584112        -1.329059
 H         3.576191         1.685380        -2.423426
 H         2.733660         3.935426        -1.139063
 H         1.443659         2.706341        -1.856741
 H         2.484343         1.187945         1.618340
