19
Iteration:  2004
 C        -0.028259         0.117154        -0.377185
 C         1.415099         0.155871        -0.244788
 O         2.182441        -1.099827         0.150636
 C         2.573904        -0.332945        -1.064906
 C         3.448990         0.774495        -0.538536
 C         3.513177         2.146875        -1.336256
 C         2.309249         2.965226        -1.112963
 O         2.082032         2.621031         0.314188
 C         2.292427         1.192232         0.454625
 H        -0.600985         0.341471         0.537704
 H        -0.325575         1.071130        -0.907065
 H        -0.343274        -0.681157        -0.941835
 H         2.419905        -0.934621        -1.952192
 H         4.395703         0.513382        -0.109224
 H         4.392641         2.792379        -1.161371
 H         3.511188         1.858368        -2.440523
 H         2.460971         4.085280        -1.133062
 H         1.371409         2.763378        -1.599900
 H         2.433917         1.067308         1.549532
