19
Iteration:  2886
 C        -0.065796        -0.023174        -0.292612
 C         1.457212         0.095306        -0.122399
 O         2.190831        -1.129653         0.185345
 C         2.553315        -0.320372        -1.052585
 C         3.375644         0.904170        -0.565689
 C         3.465400         2.088188        -1.580519
 C         2.782770         3.148101        -0.826938
 O         1.749301         2.587467         0.079635
 C         2.283667         1.206731         0.457989
 H        -0.500981        -0.186490         0.708256
 H        -0.426203         0.953898        -0.541919
 H        -0.482444        -0.835699        -0.967363
 H         2.351368        -0.656348        -2.117331
 H         4.407681         0.580022        -0.256824
 H         4.550508         2.218606        -1.952767
 H         2.647360         2.007829        -2.484298
 H         3.476482         3.779927        -0.230357
 H         2.292126         3.789137        -1.469634
 H         2.644387         1.278454         1.499331
