19
Iteration:  2812
 C        -0.168511        -0.105943        -0.175252
 C         1.369682         0.045249        -0.205225
 O         2.247692        -1.088768         0.110777
 C         2.599751        -0.352366        -1.031911
 C         3.354316         0.928687        -0.610442
 C         3.439056         2.026928        -1.530189
 C         2.970357         3.239256        -0.720964
 O         1.721332         2.546939        -0.034130
 C         2.242650         1.330332         0.423728
 H        -0.569591         0.144479         0.825519
 H        -0.629928         0.473652        -0.886852
 H        -0.524966        -1.182439        -0.195614
 H         2.594891        -0.996374        -1.992748
 H         4.258795         0.757715        -0.153472
 H         4.425149         2.373178        -1.848340
 H         2.773970         2.256731        -2.302675
 H         3.709688         3.579908         0.048991
 H         2.561719         4.086600        -1.385816
 H         2.437116         1.273029         1.488720
