19
Iteration:  4892
 C        -0.053104         0.094936        -0.021877
 C         1.430242         0.034164        -0.148531
 O         2.207459        -1.075066         0.015395
 C         2.449387        -0.210035        -1.134011
 C         3.393780         0.823600        -0.624763
 C         3.654450         2.145564        -1.363768
 C         2.670200         3.197343        -0.867462
 O         1.732031         2.440854         0.010034
 C         2.266570         1.154802         0.389284
 H        -0.228233        -0.303005         0.953137
 H        -0.451396         1.083335        -0.180946
 H        -0.535013        -0.657082        -0.714029
 H         2.448154        -0.830200        -2.027233
 H         4.339635         0.362698        -0.304094
 H         4.692673         2.369875        -1.150695
 H         3.479994         2.026187        -2.455648
 H         2.927208         4.046444        -0.179134
 H         2.120240         3.522642        -1.833736
 H         2.662059         1.083999         1.360189
