19
Iteration:  3594
 C        -0.047557        -0.043260        -0.272436
 C         1.403483         0.046134        -0.029057
 O         2.239174        -1.076809         0.186253
 C         2.480895        -0.221926        -1.002847
 C         3.360847         0.879054        -0.652329
 C         3.380638         2.022096        -1.637256
 C         2.877225         3.182571        -0.727460
 O         1.746879         2.515283        -0.019204
 C         2.289723         1.283500         0.455479
 H        -0.698467        -0.407786         0.629921
 H        -0.390758         0.949545        -0.711100
 H        -0.260708        -0.768293        -1.114639
 H         2.653023        -0.801986        -1.887644
 H         4.388571         0.794446        -0.253128
 H         4.379537         2.282967        -1.942435
 H         2.712996         1.937612        -2.489395
 H         3.610045         3.644788        -0.040558
 H         2.354207         3.968311        -1.289734
 H         2.757458         1.050245         1.447949
