19
Iteration:  2042charge 0 multiplicity 1
 C         0.035509         0.246404        -0.323848
 C         1.503881         0.153565        -0.128890
 O         2.109726        -1.139298         0.003703
 C         2.571502        -0.223486        -1.020651
 C         3.550082         0.864527        -0.417367
 C         3.452693         2.016246        -1.453839
 C         2.384395         2.963467        -1.110279
 O         1.842570         2.512333         0.242392
 C         2.354263         1.190082         0.570170
 H        -0.507476         0.471726         0.576442
 H        -0.128380         0.957640        -1.085355
 H        -0.362537        -0.780247        -0.678450
 H         2.658548        -0.343417        -2.098245
 H         4.577628         0.475955        -0.159972
 H         4.413096         2.643312        -1.483809
 H         3.284157         1.670352        -2.459771
 H         2.786986         3.941499        -0.977842
 H         1.560706         3.010825        -1.924167
 H         2.483138         0.894553         1.609670
