19
Iteration:  4467charge 0 multiplicity 1
 C        -0.103294         0.079476        -0.369248
 C         1.359578         0.145198        -0.252567
 O         2.176377        -1.041007         0.106785
 C         2.458740        -0.285111        -1.083690
 C         3.505330         0.781712        -0.655664
 C         3.582315         2.187312        -1.350382
 C         2.281821         2.978135        -1.044074
 O         2.110777         2.588981         0.407145
 C         2.384841         1.197190         0.483104
 H        -0.582033        -0.194114         0.574962
 H        -0.590377         0.954059        -0.845557
 H        -0.326861        -0.782999        -0.956676
 H         2.488532        -0.883978        -1.953962
 H         4.457781         0.404795        -0.391308
 H         4.601490         2.603535        -1.066144
 H         3.642745         2.158747        -2.465418
 H         2.065350         4.053491        -0.999860
 H         1.476170         2.594297        -1.647689
 H         2.781548         0.769561         1.439959
