19
Iteration:   206
 C        -0.098072         0.113627        -0.198546
 C         1.352435         0.143476        -0.049149
 O         2.169917        -1.055113        -0.010541
 C         2.377430        -0.132214        -1.132290
 C         3.423272         0.801154        -0.516291
 C         3.654460         2.044819        -1.357113
 C         2.467300         2.949626        -1.151388
 O         2.069354         2.553242         0.202895
 C         2.323755         1.179350         0.534409
 H        -0.409762        -0.484225         0.691454
 H        -0.493960         1.142719        -0.255280
 H        -0.331348        -0.429729        -1.130683
 H         2.233760        -0.363493        -2.183263
 H         4.317074         0.265159        -0.194880
 H         4.569558         2.579897        -1.116165
 H         3.722857         1.812468        -2.445071
 H         2.590186         4.026929        -1.150038
 H         1.640386         2.722808        -1.866837
 H         2.563295         1.006286         1.651490
