19
Iteration:  1004charge 0 multiplicity 1
 C        -0.151969         0.111195        -0.277395
 C         1.396853         0.150197        -0.140799
 O         2.150575        -1.012915         0.114625
 C         2.463219        -0.161869        -1.073895
 C         3.530297         0.821907        -0.634849
 C         3.709883         2.100787        -1.352049
 C         2.330662         2.852051        -1.103469
 O         1.950240         2.503850         0.251333
 C         2.370220         1.228025         0.485241
 H        -0.417244        -0.634288         0.523905
 H        -0.467314         1.127538        -0.027690
 H        -0.487118        -0.127309        -1.263907
 H         2.263767        -0.766607        -1.878493
 H         4.465762         0.291050        -0.483138
 H         4.519081         2.805643        -0.862762
 H         4.053886         2.031223        -2.403487
 H         2.611904         3.819959        -1.309687
 H         1.645171         2.656060        -1.911437
 H         2.641354         1.160504         1.564863
