19
Iteration:  4243
 C         0.075244         0.197005        -0.174877
 C         1.480782         0.158728        -0.086716
 O         2.155331        -1.126651        -0.085109
 C         2.404827        -0.148888        -1.138356
 C         3.447753         0.794924        -0.548159
 C         3.646629         2.175957        -1.303835
 C         2.365209         2.892966        -1.098736
 O         1.863108         2.469485         0.190724
 C         2.350826         1.173413         0.538059
 H        -0.368793        -0.037526         0.801599
 H        -0.374084         1.123993        -0.496505
 H        -0.250476        -0.576172        -0.956805
 H         2.154196        -0.528893        -2.082844
 H         4.418580         0.426671        -0.243785
 H         4.439972         2.600282        -0.669219
 H         4.025922         2.191625        -2.353354
 H         2.397318         3.963957        -1.036688
 H         1.655935         2.686411        -1.904177
 H         2.583240         1.174417         1.631229
