19
Iteration:   442
 C        -0.144411         0.249206        -0.072894
 C         1.433694         0.134936        -0.288269
 O         2.209252        -1.075332        -0.002909
 C         2.521906        -0.278167        -1.154434
 C         3.301357         0.808550        -0.585417
 C         3.689387         2.044229        -1.379097
 C         2.458606         2.932261        -1.061779
 O         1.999237         2.560030         0.289874
 C         2.286587         1.229307         0.436653
 H        -0.310214        -0.071625         0.956953
 H        -0.514476         1.217679        -0.479989
 H        -0.503251        -0.534579        -0.744320
 H         2.574525        -0.808907        -2.014054
 H         4.045830         0.565402         0.146802
 H         4.653819         2.447780        -1.041630
 H         3.707385         1.804445        -2.478472
 H         2.665735         3.971932        -0.835866
 H         1.588320         2.706255        -1.675614
 H         2.428332         0.949542         1.463877
