19
Iteration:  3073charge 0 multiplicity 1
 C        -0.061440        -0.037177        -0.230896
 C         1.411911         0.112889        -0.149726
 O         2.216733        -1.079475         0.114580
 C         2.464375        -0.249201        -1.072440
 C         3.354441         0.780631        -0.608332
 C         3.582019         2.069899        -1.432901
 C         2.538912         3.115489        -0.967541
 O         1.872662         2.549448         0.144511
 C         2.355480         1.299333         0.436906
 H        -0.529494        -0.120569         0.803969
 H        -0.448010         0.928944        -0.497349
 H        -0.439249        -0.931492        -0.844065
 H         2.361824        -0.582651        -2.112432
 H         4.244803         0.224829        -0.255040
 H         4.478525         2.469945        -0.913999
 H         3.716249         1.848755        -2.491990
 H         2.972045         4.099818        -0.609029
 H         1.899719         3.442063        -1.752444
 H         2.795399         1.441159         1.455519
