19
Iteration:  2336
 C        -0.025479         0.278319        -0.323646
 C         1.481576         0.073596        -0.123534
 O         2.147472        -1.153101         0.132804
 C         2.543153        -0.267906        -1.104799
 C         3.523910         0.884180        -0.546245
 C         3.568076         2.155389        -1.410680
 C         2.343259         2.908710        -1.057176
 O         1.877046         2.513721         0.197268
 C         2.376074         1.210219         0.506184
 H        -0.627038        -0.107443         0.525292
 H        -0.283928         1.326140        -0.291968
 H        -0.504956        -0.091283        -1.343580
 H         2.309140        -0.843756        -2.039346
 H         4.402738         0.413481        -0.084469
 H         4.499256         2.497081        -1.019516
 H         3.914676         2.051671        -2.360293
 H         2.414221         3.974491        -0.952234
 H         1.576175         2.686024        -1.871067
 H         2.416737         0.855084         1.510286
