19
Iteration:   962charge 0 multiplicity 1
 C        -0.069330         0.190647        -0.245703
 C         1.422013         0.111006        -0.247230
 O         2.132087        -1.176818         0.039020
 C         2.596611        -0.307064        -1.062563
 C         3.507297         0.821199        -0.510425
 C         3.501310         2.014113        -1.397533
 C         2.374877         2.953307        -1.127137
 O         2.000874         2.667878         0.300635
 C         2.314936         1.249356         0.484382
 H        -0.503587        -0.232689         0.756371
 H        -0.316217         1.337415        -0.355786
 H        -0.711124        -0.363629        -0.977172
 H         2.683296        -0.613815        -2.042827
 H         4.500149         0.658561        -0.084240
 H         4.438101         2.606509        -1.134357
 H         3.646056         1.737166        -2.460622
 H         2.704735         4.040524        -1.113471
 H         1.497422         2.986097        -1.712402
 H         2.397449         1.036505         1.597374
