19
Iteration:  4321charge 0 multiplicity 1
 C        -0.100563         0.030364        -0.147612
 C         1.381367         0.122695        -0.111477
 O         2.200129        -1.146448        -0.065164
 C         2.483425        -0.221021        -1.097461
 C         3.447516         0.789104        -0.617981
 C         3.678871         2.171637        -1.335807
 C         2.447963         3.030732        -1.058433
 O         1.890000         2.581233         0.202541
 C         2.327628         1.217536         0.524986
 H        -0.578339        -0.334493         0.711497
 H        -0.519924         1.069612        -0.324109
 H        -0.415903        -0.656779        -0.985454
 H         2.366987        -0.540921        -2.140164
 H         4.455787         0.440096        -0.322415
 H         4.613714         2.621026        -0.925001
 H         3.864166         2.009356        -2.452265
 H         2.723982         4.051662        -0.863015
 H         1.701614         2.859518        -1.792862
 H         2.583723         1.274184         1.650411
