19
Iteration:  4533charge 0 multiplicity 1
 C         0.021785         0.312684        -0.104262
 C         1.512346         0.138781        -0.092102
 O         2.120533        -1.130712        -0.195394
 C         2.528390        -0.084883        -1.111009
 C         3.493728         0.873570        -0.443035
 C         3.660772         2.096497        -1.341609
 C         2.309016         2.778916        -1.173511
 O         1.764096         2.446379         0.245988
 C         2.402050         1.148335         0.544631
 H        -0.434313        -0.126699         0.834322
 H        -0.289334         1.324609        -0.245074
 H        -0.418580        -0.289129        -0.941323
 H         2.465054        -0.351798        -2.151831
 H         4.384555         0.377111        -0.140293
 H         4.558043         2.782982        -1.021211
 H         3.988241         1.772820        -2.370500
 H         2.547265         3.900387        -1.206544
 H         1.465399         2.557141        -1.914848
 H         2.670851         1.272712         1.627130
