19
Iteration:  2518
 C        -0.089048         0.025976        -0.211985
 C         1.411022         0.077690        -0.102733
 O         2.170814        -1.081591         0.088742
 C         2.557099        -0.359116        -1.036874
 C         3.476755         0.869188        -0.556979
 C         3.567567         2.087660        -1.493649
 C         2.670917         3.125155        -0.937822
 O         1.759818         2.548042         0.064102
 C         2.249433         1.255448         0.485900
 H        -0.629352        -0.414667         0.634597
 H        -0.494218         0.999840        -0.324246
 H        -0.281901        -0.455713        -1.168583
 H         2.672586        -0.842781        -2.006883
 H         4.394950         0.691381        -0.012115
 H         4.574959         2.439281        -1.660010
 H         3.269129         1.741001        -2.575278
 H         3.399727         3.897757        -0.530406
 H         1.882234         3.690241        -1.512527
 H         2.423855         1.247880         1.589994
