19
Iteration:  1435charge 0 multiplicity 1
 C        -0.005479         0.165789        -0.422038
 C         1.478803         0.196568        -0.047422
 O         2.078930        -1.052364         0.066675
 C         2.491263        -0.247413        -1.012123
 C         3.487524         0.817530        -0.548326
 C         3.584750         2.125464        -1.351757
 C         2.213656         2.857240        -1.116180
 O         2.021379         2.533284         0.224428
 C         2.433919         1.198971         0.569960
 H        -0.686233        -0.163733         0.344387
 H        -0.395294         1.128497        -0.705012
 H        -0.168251        -0.583644        -1.219387
 H         2.392867        -0.648266        -2.057415
 H         4.505307         0.615973        -0.197598
 H         4.531002         2.663706        -1.113859
 H         3.526596         1.680328        -2.448585
 H         2.378834         3.963109        -1.264308
 H         1.461884         2.533642        -1.812592
 H         2.870260         1.191831         1.593002
