19
Iteration:  2250
 C        -0.126520         0.026199        -0.263802
 C         1.397673         0.181352        -0.093023
 O         2.100029        -1.078244        -0.100114
 C         2.526841        -0.143950        -1.042464
 C         3.547224         0.781696        -0.481235
 C         3.651072         2.096023        -1.342987
 C         2.328185         2.877916        -1.097977
 O         1.993065         2.646884         0.217330
 C         2.368506         1.234144         0.539294
 H        -0.588287        -0.012527         0.715058
 H        -0.496735         0.811468        -0.876625
 H        -0.307154        -0.986141        -0.734092
 H         2.483860        -0.596792        -2.078490
 H         4.561276         0.387311        -0.112069
 H         4.574681         2.756013        -1.046029
 H         3.709516         1.762551        -2.416249
 H         2.487010         3.925227        -1.148148
 H         1.535847         2.622635        -1.794963
 H         2.469666         1.043426         1.634328
