19
Iteration:  4156
 C        -0.122402        -0.122505        -0.359063
 C         1.338075         0.182973        -0.245681
 O         2.128588        -1.014279         0.045285
 C         2.532969        -0.304463        -1.058775
 C         3.471768         0.897580        -0.485947
 C         3.444480         2.059822        -1.533016
 C         2.492216         3.120138        -0.966773
 O         2.125423         2.586055         0.332483
 C         2.322639         1.195772         0.545564
 H        -0.585309        -0.487203         0.610011
 H        -0.587710         0.779624        -0.731996
 H        -0.176042        -1.053374        -1.079684
 H         2.529330        -0.869908        -1.997518
 H         4.467387         0.728498        -0.092976
 H         4.422429         2.603194        -1.562993
 H         3.266364         1.813844        -2.630301
 H         2.925227         4.063245        -0.618937
 H         1.696311         3.347076        -1.733906
 H         2.458322         1.025140         1.676192
