19
Iteration:  3751charge 0 multiplicity 1
 C        -0.026108         0.061412        -0.125823
 C         1.472589         0.071188        -0.164963
 O         2.190195        -1.120071         0.051377
 C         2.613393        -0.340272        -1.049340
 C         3.373045         0.876936        -0.560575
 C         3.492134         2.030522        -1.578867
 C         2.720521         3.165342        -0.819879
 O         1.753402         2.565301         0.076139
 C         2.176004         1.273799         0.386904
 H        -0.242651        -0.081004         1.019813
 H        -0.349617         1.067408        -0.320431
 H        -0.463501        -0.817535        -0.733382
 H         2.267894        -0.775146        -1.971837
 H         4.352908         0.508897        -0.114759
 H         4.588330         2.229669        -1.537465
 H         3.289988         1.799573        -2.564967
 H         3.380690         3.817974        -0.243647
 H         2.051933         3.747419        -1.483896
 H         2.394364         1.155459         1.483050
