19
Iteration:  1967charge 0 multiplicity 1
 C        -0.126630         0.023867        -0.349996
 C         1.401144         0.179491        -0.138328
 O         2.120641        -1.039301         0.076737
 C         2.463017        -0.227830        -1.044823
 C         3.532891         0.835762        -0.541511
 C         3.651464         2.195870        -1.349766
 C         2.314214         2.880302        -1.113910
 O         2.059595         2.583089         0.290585
 C         2.343311         1.247926         0.505524
 H        -0.544150        -0.524868         0.508509
 H        -0.515239         0.996263        -0.750518
 H        -0.290641        -0.784675        -1.217475
 H         2.437936        -0.793506        -1.997543
 H         4.395727         0.264367        -0.171801
 H         4.555995         2.656515        -1.230308
 H         3.568345         1.807303        -2.342275
 H         2.520481         3.886064        -1.338803
 H         1.702488         2.517475        -1.875972
 H         2.568815         1.105511         1.575255
