19
Iteration:  2664
 C        -0.051988        -0.040988        -0.230965
 C         1.413078         0.160508        -0.066795
 O         2.217808        -1.107530         0.096072
 C         2.508027        -0.325476        -1.047778
 C         3.408421         0.810067        -0.581018
 C         3.552247         2.119425        -1.505297
 C         2.726916         3.166491        -0.858230
 O         1.713318         2.572307        -0.003394
 C         2.253062         1.231513         0.539606
 H        -0.555845        -0.029913         0.704762
 H        -0.414675         0.894868        -0.748107
 H        -0.307953        -0.843433        -0.878111
 H         2.549646        -0.786924        -2.057772
 H         4.428773         0.363236        -0.341093
 H         4.649174         2.378014        -1.671024
 H         3.170038         1.783846        -2.570701
 H         3.252908         3.960024        -0.213538
 H         2.272163         3.652692        -1.679713
 H         2.564861         1.177220         1.609590
