19
Iteration:  3338
 C        -0.054441         0.262848        -0.145815
 C         1.443342         0.130880        -0.187424
 O         2.164617        -1.096353        -0.007846
 C         2.580736        -0.281374        -1.114206
 C         3.501815         0.797383        -0.491055
 C         3.604316         2.079812        -1.341094
 C         2.247190         2.883235        -1.114893
 O         1.928503         2.581541         0.229997
 C         2.333221         1.190772         0.452877
 H        -0.374742        -0.010261         0.877061
 H        -0.349743         1.300408        -0.588546
 H        -0.403130        -0.448987        -0.937034
 H         2.740398        -0.741502        -2.113498
 H         4.485735         0.459816        -0.213029
 H         4.222566         2.622532        -0.737220
 H         3.927509         2.124535        -2.379547
 H         2.484274         3.940073        -1.269251
 H         1.434574         2.431938        -1.765757
 H         2.700381         1.238031         1.503488
