19
Iteration:   371charge 0 multiplicity 1
 C        -0.146130         0.222153        -0.222876
 C         1.449907         0.137427        -0.139453
 O         2.212274        -1.059939         0.023043
 C         2.445506        -0.227450        -1.165190
 C         3.465906         0.729658        -0.587926
 C         3.637315         1.993615        -1.393917
 C         2.351041         2.938535        -1.013724
 O         2.052284         2.610630         0.272252
 C         2.266611         1.229434         0.556602
 H        -0.439805        -0.315870         0.698019
 H        -0.368214         1.276516        -0.378186
 H        -0.405229        -0.345060        -1.130626
 H         2.469431        -0.642248        -2.275339
 H         4.393616         0.112250        -0.479287
 H         4.542269         2.616044        -1.264541
 H         3.613108         1.847365        -2.491388
 H         2.549962         4.039369        -1.063619
 H         1.575102         2.667655        -1.798592
 H         2.432962         1.099647         1.695580
