19
Iteration:  2679
 C        -0.055184         0.056334        -0.206875
 C         1.419125         0.012994        -0.111864
 O         2.189230        -1.137676         0.072462
 C         2.515597        -0.223850        -1.031582
 C         3.456793         0.905348        -0.507573
 C         3.580891         2.002509        -1.520307
 C         2.637442         3.148414        -0.878993
 O         1.761055         2.473912         0.013223
 C         2.289318         1.319890         0.430572
 H        -0.496278        -0.225248         0.797386
 H        -0.505887         1.025266        -0.466266
 H        -0.346178        -0.725380        -0.949289
 H         2.357613        -0.605883        -2.015523
 H         4.336238         0.683586         0.100200
 H         4.656006         2.425856        -1.524986
 H         3.220596         1.785023        -2.526343
 H         3.394842         3.828902        -0.334062
 H         1.939675         3.826332        -1.443971
 H         2.340594         1.378774         1.535500
