19
Iteration:  2633charge 0 multiplicity 1
 C        -0.089695        -0.162484        -0.232489
 C         1.359259         0.069358        -0.123446
 O         2.198394        -1.010115         0.164640
 C         2.543590        -0.386218        -1.015682
 C         3.374939         0.875072        -0.636263
 C         3.548810         2.180126        -1.621996
 C         2.823791         3.162505        -0.743872
 O         1.789781         2.567837         0.009697
 C         2.189362         1.263899         0.457222
 H        -0.584603         0.264918         0.628264
 H        -0.466299         0.640936        -0.962645
 H        -0.452495        -1.102834        -0.547468
 H         2.517146        -0.842848        -1.972060
 H         4.376958         0.596845        -0.152779
 H         4.703591         2.351348        -1.758750
 H         3.037198         1.835421        -2.578118
 H         3.517067         3.773157        -0.010817
 H         2.323490         3.910426        -1.339801
 H         2.442963         1.068292         1.530928
