19
Iteration:  2856
 C        -0.081200        -0.050045        -0.283806
 C         1.410840         0.142330        -0.080335
 O         2.230762        -1.034227         0.197926
 C         2.559671        -0.383405        -1.034015
 C         3.343942         0.833112        -0.674254
 C         3.446029         2.111838        -1.609247
 C         2.835079         3.187595        -0.648420
 O         1.738056         2.549119        -0.015255
 C         2.274124         1.225692         0.432375
 H        -0.693513         0.112998         0.614312
 H        -0.401246         0.626608        -0.976383
 H        -0.372070        -1.071876        -0.554662
 H         2.625067        -0.957047        -2.006836
 H         4.308772         0.528669        -0.463199
 H         4.483391         2.121320        -1.945502
 H         2.806313         2.080166        -2.502779
 H         3.514453         3.534109         0.108050
 H         2.348941         4.039805        -1.214436
 H         2.644220         1.387876         1.421580
