19
Iteration:  2829
 C        -0.053161        -0.092118        -0.192712
 C         1.391043         0.057824        -0.132057
 O         2.242618        -1.108510         0.198637
 C         2.519783        -0.327564        -1.071999
 C         3.389983         0.878433        -0.585108
 C         3.445634         2.123392        -1.594448
 C         2.850024         3.203296        -0.636830
 O         1.789306         2.628473        -0.049403
 C         2.157787         1.221245         0.303944
 H        -0.473281         0.349590         0.722873
 H        -0.485924         0.566441        -1.080860
 H        -0.461975        -1.093144        -0.288121
 H         2.639401        -0.922586        -1.946589
 H         4.443930         0.512768        -0.215716
 H         4.475927         2.223073        -2.089409
 H         2.700263         1.877505        -2.509867
 H         3.637448         3.375648         0.156304
 H         2.493757         4.144943        -1.003289
 H         2.334466         1.318999         1.402703
