19
Iteration:  1666
 C        -0.072609         0.137041        -0.239123
 C         1.400247         0.156870        -0.044578
 O         2.150926        -1.076142         0.060431
 C         2.482531        -0.156999        -1.055052
 C         3.469904         0.836063        -0.666646
 C         3.769476         2.181686        -1.346264
 C         2.419214         2.905476        -1.152669
 O         1.859273         2.468295         0.164431
 C         2.322132         1.175109         0.550715
 H        -0.503654         0.036270         0.782865
 H        -0.333349         1.112920        -0.722057
 H        -0.439695        -0.708354        -0.796901
 H         2.332839        -0.701799        -2.005308
 H         4.370190         0.311868        -0.295138
 H         4.452621         2.688068        -0.655520
 H         4.164949         2.038752        -2.264281
 H         2.278457         4.020438        -1.226366
 H         1.830882         2.452315        -1.995844
 H         2.425502         1.096999         1.655269
