19
Iteration:  1089charge 0 multiplicity 1
 C         0.014921         0.173654        -0.110879
 C         1.468326         0.130589        -0.234029
 O         2.157914        -1.032393         0.075434
 C         2.530736        -0.146691        -1.244052
 C         3.452624         0.758391        -0.546679
 C         3.737295         2.139268        -1.269836
 C         2.398970         2.826842        -1.132250
 O         1.827291         2.519025         0.238533
 C         2.233050         1.219878         0.441690
 H        -0.341725         0.462087         0.880136
 H        -0.377904         1.009253        -0.631083
 H        -0.580129        -0.692796        -0.419299
 H         2.420359        -0.726232        -2.116267
 H         4.370092         0.144894        -0.429112
 H         4.628106         2.579200        -0.760396
 H         3.972904         2.032375        -2.286389
 H         2.541405         3.921984        -1.172225
 H         1.513853         2.504205        -1.807437
 H         2.291999         1.201411         1.501442
