19
Iteration:   623charge 0 multiplicity 1
 C        -0.026862         0.085260        -0.294485
 C         1.388936         0.189380        -0.061468
 O         2.066453        -1.109140        -0.040950
 C         2.456317        -0.186138        -1.091867
 C         3.481989         0.757266        -0.456677
 C         3.607236         2.032641        -1.395412
 C         2.303018         2.974246        -1.099172
 O         2.078189         2.618420         0.259849
 C         2.416841         1.235441         0.518145
 H        -0.507522        -0.061272         0.630152
 H        -0.324917         1.007896        -0.732878
 H        -0.292252        -0.691740        -0.967226
 H         2.219063        -0.526651        -2.084768
 H         4.440862         0.299496        -0.122202
 H         4.567753         2.571553        -1.364737
 H         3.539284         1.728184        -2.409465
 H         2.612337         4.034308        -1.139996
 H         1.409472         2.726649        -1.688991
 H         2.727922         1.153307         1.585383
