19
Iteration:  1773charge 0 multiplicity 1
 C        -0.075340         0.196696        -0.428397
 C         1.405204         0.024074        -0.116765
 O         2.191201        -1.121608         0.184293
 C         2.600901        -0.350924        -0.991705
 C         3.391425         0.816311        -0.605290
 C         3.601640         2.152269        -1.439412
 C         2.351861         3.029245        -1.051510
 O         2.022297         2.587328         0.292885
 C         2.286697         1.224435         0.435223
 H        -0.737401        -0.040455         0.442783
 H        -0.372102         1.244271        -0.589325
 H        -0.261711        -0.376768        -1.270746
 H         2.525977        -0.899694        -1.953025
 H         4.257780         0.339345        -0.204849
 H         4.531549         2.732570        -1.329034
 H         3.610752         2.066218        -2.582131
 H         2.341878         4.108004        -0.932084
 H         1.583212         2.666315        -1.704101
 H         2.594715         1.045617         1.504479
