19
Iteration:  4955charge 0 multiplicity 1
 C         0.116995         0.399595         0.285341
 C         1.209622        -0.247724        -0.568274
 O         1.834851        -1.556558        -0.137145
 C         2.716358        -0.476267        -0.594715
 C         2.788514        -0.346319        -2.129812
 C         2.975056        -1.631145        -3.091891
 O         1.719392        -2.119236        -3.365850
 C         0.710489        -1.157043        -3.107326
 C         1.288502        -0.129977        -2.148799
 H         0.356835         0.985645         1.175795
 H        -0.477927         1.156045        -0.382012
 H        -0.603583        -0.351278         0.587400
 H         3.365311        -0.189817         0.215691
 H         3.468471         0.386598        -2.640853
 H         3.521783        -1.350339        -3.977092
 H         3.517457        -2.427436        -2.586311
 H         0.520191        -0.635421        -4.146359
 H        -0.224469        -1.719260        -2.906942
 H         0.962697         0.884596        -2.248331
