19
Iteration:  3126
 C         0.182559         0.284864         0.391102
 C         1.223836        -0.132982        -0.620615
 O         2.217596        -1.221106        -0.217594
 C         2.676062        -0.033039        -0.839387
 C         2.614751        -0.249321        -2.349331
 C         2.947438        -1.527307        -3.115733
 O         1.816529        -2.317648        -3.218420
 C         0.581582        -1.652739        -2.819834
 C         0.998553        -0.343687        -2.168702
 H        -0.762398        -0.456732         0.375893
 H         0.495262        -0.125966         1.373460
 H        -0.073615         1.327531         0.433437
 H         3.511121         0.578202        -0.299928
 H         3.051309         0.645586        -2.885042
 H         3.412102        -1.245645        -4.133920
 H         3.743144        -2.042181        -2.562035
 H        -0.084823        -1.487346        -3.599294
 H         0.070395        -2.362426        -2.098863
 H         0.347218         0.511533        -2.585650
