19
Iteration:  3925charge 0 multiplicity 1
 C         0.116039         0.289580         0.300322
 C         1.259477        -0.220378        -0.613599
 O         2.061290        -1.364627        -0.251185
 C         2.753581        -0.250240        -0.566742
 C         2.785160        -0.288819        -2.172210
 C         2.911566        -1.733906        -2.953042
 O         1.662059        -2.011980        -3.608065
 C         0.590863        -1.416367        -2.927067
 C         1.218219        -0.235180        -2.111474
 H        -0.913382        -0.267889         0.146500
 H         0.372373         0.331828         1.367516
 H        -0.196652         1.220434        -0.092727
 H         3.503316         0.103577         0.040377
 H         3.362008         0.501530        -2.654302
 H         3.714460        -1.800923        -3.641410
 H         3.054352        -2.463696        -2.070946
 H        -0.171885        -1.141199        -3.646862
 H         0.085427        -2.077866        -2.176013
 H         0.945682         0.759248        -2.239994
