19
Iteration:  2061charge 0 multiplicity 1
 C         0.286983         0.483144         0.421120
 C         1.198325        -0.096023        -0.613574
 O         1.986982        -1.354374        -0.375508
 C         2.651745        -0.264319        -0.951200
 C         2.539817        -0.141661        -2.459617
 C         2.902731        -1.293358        -3.218924
 O         2.037145        -2.360645        -3.018753
 C         0.736935        -1.858614        -2.613436
 C         0.928073        -0.293598        -2.113473
 H        -0.546932         1.050362        -0.133509
 H        -0.401548        -0.360141         0.846408
 H         0.720283         0.924691         1.235531
 H         3.664220         0.007429        -0.350580
 H         2.804757         0.886188        -2.748897
 H         2.830758        -1.085659        -4.358657
 H         3.915908        -1.717109        -3.088791
 H         0.159805        -1.843524        -3.528026
 H         0.287746        -2.493867        -1.730501
 H         0.197162         0.510639        -2.470644
