19
Iteration:  3279charge 0 multiplicity 1
 C         0.218932         0.404145         0.290909
 C         1.230087        -0.211355        -0.619417
 O         2.146997        -1.400170        -0.151433
 C         2.693265        -0.205319        -0.777449
 C         2.562395        -0.231803        -2.353497
 C         2.956174        -1.392279        -3.180714
 O         1.828911        -2.269422        -3.171580
 C         0.632643        -1.640865        -2.814254
 C         1.002646        -0.291020        -2.187332
 H         0.413180         0.234198         1.379870
 H         0.046304         1.446540         0.094177
 H        -0.721737        -0.071402         0.257304
 H         3.550027         0.196555        -0.113669
 H         3.049781         0.708020        -2.757316
 H         3.218065        -0.999578        -4.153821
 H         3.802366        -1.904857        -2.704483
 H         0.028008        -1.545804        -3.814576
 H         0.080949        -2.207012        -1.995429
 H         0.316543         0.541348        -2.546653
