19
Iteration:   258charge 0 multiplicity 1
 C         0.246576         0.328698         0.377102
 C         1.187592        -0.230141        -0.625728
 O         2.217280        -1.166402        -0.165186
 C         2.692622        -0.026478        -0.855752
 C         2.477307        -0.213977        -2.376942
 C         2.943877        -1.492058        -3.178496
 O         1.883456        -2.405413        -3.100985
 C         0.558852        -1.618592        -2.902990
 C         1.021474        -0.389976        -2.108557
 H        -0.684178         0.608251        -0.010392
 H         0.239572        -0.544593         1.178913
 H         0.637614         1.155792         0.880930
 H         3.506679         0.491678        -0.318715
 H         2.718131         0.693038        -2.943319
 H         3.114034        -1.201913        -4.188353
 H         3.954588        -2.027286        -2.896038
 H         0.059356        -1.525127        -3.880907
 H        -0.094697        -2.350556        -2.359280
 H         0.350973         0.428776        -2.366921
