19
Iteration:  4183
 C         0.124686         0.285566         0.398838
 C         1.241644        -0.208937        -0.585081
 O         1.976061        -1.449394        -0.263644
 C         2.708613        -0.290469        -0.568762
 C         2.788737        -0.380989        -2.180345
 C         2.981992        -1.806229        -2.911821
 O         1.679781        -2.054551        -3.561685
 C         0.649708        -1.218865        -3.041614
 C         1.215984        -0.133028        -2.128882
 H         0.182979         0.288966         1.427850
 H        -0.070922         1.297144        -0.032523
 H        -0.648127        -0.564485         0.163808
 H         3.358563         0.379439         0.144394
 H         3.268116         0.414329        -2.720654
 H         3.811745        -1.622103        -3.659053
 H         3.239976        -2.686342        -2.213809
 H         0.149097        -0.736770        -3.872969
 H        -0.309064        -1.698606        -2.609134
 H         0.933817         0.895022        -2.445759
