19
Iteration:  4350charge 0 multiplicity 1
 C         0.283651         0.499225         0.175035
 C         1.267191        -0.209775        -0.596978
 O         1.781764        -1.498442         0.009692
 C         2.656297        -0.495570        -0.515219
 C         2.760085        -0.388093        -2.149666
 C         2.934921        -1.657226        -2.899707
 O         1.767918        -1.689486        -3.787820
 C         0.713145        -1.522252        -2.922431
 C         1.167034        -0.301645        -2.194015
 H         0.857902         0.928794         1.109044
 H        -0.051407         1.335471        -0.341939
 H        -0.447495        -0.234249         0.476621
 H         3.298300        -0.018536         0.156978
 H         3.410351         0.400882        -2.630242
 H         3.724993        -1.636700        -3.629679
 H         2.965058        -2.620992        -2.397531
 H        -0.236647        -1.538754        -3.527918
 H         0.437947        -2.455238        -2.269559
 H         0.796730         0.631237        -2.496249
