19
Iteration:   684charge 0 multiplicity 1
 C         0.230867         0.482422         0.336486
 C         1.241395        -0.206059        -0.580192
 O         2.103782        -1.261123        -0.247237
 C         2.724205        -0.128463        -0.826922
 C         2.484663        -0.179325        -2.378643
 C         2.903072        -1.365049        -3.307056
 O         1.919088        -2.372619        -3.182411
 C         0.722657        -1.803919        -2.620096
 C         0.953200        -0.398767        -2.105656
 H        -0.399325         1.245489        -0.254968
 H        -0.389398        -0.255869         0.567612
 H         0.560798         1.079648         1.209603
 H         3.557299         0.339567        -0.194762
 H         2.701987         0.859794        -2.866201
 H         2.983747        -1.050435        -4.314234
 H         3.790552        -1.874020        -2.949890
 H        -0.062515        -1.999962        -3.439995
 H         0.521423        -2.401690        -1.668687
 H         0.203419         0.251793        -2.653142
