19
Iteration:  2743charge 0 multiplicity 1
 C         0.307598         0.184506         0.449760
 C         1.282562        -0.224531        -0.671011
 O         2.166617        -1.251973        -0.413058
 C         2.648317         0.012445        -0.991809
 C         2.454513        -0.120225        -2.468662
 C         2.981232        -1.484586        -2.993421
 O         1.871871        -2.347788        -2.849974
 C         0.609844        -1.639986        -2.834027
 C         0.932984        -0.302191        -2.189586
 H        -0.059531         1.281281         0.340251
 H        -0.611754        -0.381441         0.283518
 H         0.556220        -0.234477         1.483568
 H         3.493844         0.439149        -0.351076
 H         2.607822         0.837005        -3.092942
 H         3.203624        -1.449214        -4.069070
 H         3.912276        -1.862597        -2.446625
 H         0.263496        -1.504597        -3.888213
 H        -0.033456        -2.303891        -2.357583
 H         0.400064         0.540674        -2.529310
