19
Iteration:  3767
 C         0.339342         0.558514         0.203022
 C         1.254587        -0.226943        -0.542209
 O         1.808275        -1.475515        -0.143457
 C         2.707674        -0.381503        -0.528130
 C         2.627116        -0.241376        -2.188652
 C         2.976280        -1.518839        -3.133323
 O         1.767008        -1.946741        -3.729216
 C         0.671456        -1.683876        -2.662623
 C         1.142620        -0.325122        -2.131380
 H         0.921994         1.377742         0.485046
 H        -0.591267         0.854724        -0.293590
 H         0.124993        -0.085362         1.152801
 H         3.607090        -0.127421         0.150318
 H         3.088866         0.654040        -2.694895
 H         3.663447        -1.118338        -3.969308
 H         3.490024        -2.378094        -2.593231
 H        -0.375085        -1.700867        -3.214563
 H         0.616527        -2.555270        -2.021346
 H         0.556456         0.537539        -2.477147
