19
Iteration:  2557
 C         0.188630         0.249112         0.264788
 C         1.257646        -0.255146        -0.706300
 O         2.242705        -1.267273        -0.269566
 C         2.714094        -0.080116        -0.849847
 C         2.465892        -0.160299        -2.453487
 C         2.921989        -1.354209        -3.239697
 O         1.902280        -2.301752        -2.875481
 C         0.620599        -1.752763        -2.658591
 C         0.961627        -0.316753        -2.168813
 H         0.065754         1.364044        -0.112191
 H        -0.756832        -0.146349         0.179024
 H         0.505971        -0.016351         1.325931
 H         3.376697         0.628892        -0.240297
 H         2.698376         0.806663        -3.025790
 H         2.963621        -1.066434        -4.348653
 H         3.896453        -1.880099        -2.966435
 H        -0.041430        -1.724184        -3.619979
 H         0.037894        -2.404961        -1.889622
 H         0.327225         0.452054        -2.453476
