19
Iteration:  3233
 C         0.367848         0.370964         0.500535
 C         1.112330        -0.210433        -0.670941
 O         2.028979        -1.390295        -0.330823
 C         2.615030        -0.234183        -0.850132
 C         2.557150        -0.103948        -2.368012
 C         2.988691        -1.392690        -3.120055
 O         1.946737        -2.400890        -2.960729
 C         0.632031        -1.663560        -2.903742
 C         0.962859        -0.178309        -2.264742
 H         0.381242        -0.310703         1.281912
 H         0.863542         1.329007         0.746056
 H        -0.748860         0.496733         0.459924
 H         3.391827         0.361930        -0.223148
 H         3.028222         0.847382        -2.800144
 H         3.035049        -1.167466        -4.175028
 H         3.933259        -1.944449        -2.779168
 H         0.125533        -1.539434        -3.976193
 H         0.047855        -2.322434        -2.235980
 H         0.446244         0.714610        -2.731199
