19
Iteration:  1950
 C         0.271032         0.215691         0.344625
 C         1.258974        -0.296778        -0.664694
 O         2.268145        -1.208348        -0.232857
 C         2.621531         0.113439        -0.876142
 C         2.579032        -0.147507        -2.407697
 C         2.919607        -1.494531        -3.128259
 O         1.818872        -2.384626        -2.967911
 C         0.573881        -1.679720        -2.840966
 C         0.961954        -0.347867        -2.194733
 H         0.115122         1.337100         0.330414
 H        -0.771379        -0.259483         0.079711
 H         0.622476        -0.056242         1.334759
 H         3.121945         0.865067        -0.402860
 H         2.942723         0.664709        -2.950819
 H         3.071315        -1.238160        -4.152462
 H         3.814950        -1.880506        -2.701163
 H         0.123845        -1.637277        -3.808818
 H        -0.049517        -2.345542        -2.205631
 H         0.340671         0.551710        -2.315437
