19
Iteration:  1522
 C         0.431427         0.418978         0.429790
 C         1.178111        -0.234924        -0.665462
 O         1.939792        -1.318033        -0.241043
 C         2.636694        -0.158777        -0.874045
 C         2.440234        -0.146454        -2.443167
 C         2.855417        -1.306626        -3.295334
 O         2.040593        -2.337419        -2.858671
 C         0.750551        -1.799098        -2.746923
 C         0.931386        -0.391848        -2.262069
 H         0.419300         1.450215         0.348534
 H        -0.666241         0.063864         0.537566
 H         1.067166         0.363963         1.445454
 H         3.418121         0.290366        -0.155276
 H         2.836662         0.734970        -2.889043
 H         2.734358        -1.068215        -4.369274
 H         3.908668        -1.529559        -3.476559
 H         0.428718        -1.679856        -3.828085
 H         0.031295        -2.369287        -2.286680
 H         0.396169         0.515915        -2.658375
