19
Iteration:  3855charge 0 multiplicity 1
 C         0.268758         0.369104         0.416106
 C         1.187047        -0.265014        -0.566966
 O         1.962322        -1.389264        -0.280600
 C         2.654137        -0.233324        -0.710999
 C         2.716643        -0.329338        -2.223881
 C         2.965518        -1.813346        -2.864404
 O         1.777367        -1.938701        -3.640720
 C         0.658688        -1.499316        -2.942163
 C         1.100692        -0.166223        -2.107984
 H        -0.538562         0.823992         0.010752
 H        -0.049772        -0.433691         1.073286
 H         0.755377         1.225033         1.017628
 H         3.366612         0.351454         0.028995
 H         3.159294         0.561348        -2.747402
 H         3.850056        -1.945879        -3.559595
 H         3.050951        -2.488558        -2.092491
 H        -0.277221        -1.311123        -3.631039
 H         0.447913        -2.198559        -2.086096
 H         0.725752         0.787793        -2.515235
