19
Iteration:  3345charge 0 multiplicity 1
 C         0.271771         0.300825         0.424127
 C         1.215784        -0.191951        -0.594584
 O         1.989820        -1.332285        -0.225405
 C         2.718247        -0.147770        -0.760940
 C         2.580557        -0.164586        -2.398575
 C         3.010969        -1.459421        -3.039009
 O         1.828695        -2.367421        -3.336415
 C         0.626902        -1.601276        -2.811557
 C         1.012961        -0.212470        -2.231986
 H         0.765263         1.221433         1.003553
 H        -0.647434         0.563126        -0.003641
 H         0.010974        -0.511336         1.049467
 H         3.644048         0.127899        -0.249204
 H         3.135275         0.683371        -2.867192
 H         3.567661        -1.315852        -3.972756
 H         3.604662        -1.997000        -2.273773
 H        -0.084974        -1.392613        -3.587225
 H         0.289152        -2.247678        -1.960431
 H         0.316451         0.650194        -2.434252
