19
Iteration:  3108charge 0 multiplicity 1
 C         0.239384         0.247116         0.448963
 C         1.201462        -0.168591        -0.581848
 O         2.104922        -1.210777        -0.298845
 C         2.735305         0.003308        -0.906800
 C         2.556162        -0.183880        -2.423307
 C         3.076826        -1.531646        -3.006913
 O         1.801187        -2.330521        -3.280430
 C         0.619866        -1.689546        -2.750695
 C         0.974042        -0.343403        -2.130489
 H        -0.782172         0.044088         0.128971
 H         0.243058        -0.118759         1.473247
 H         0.331115         1.326876         0.615366
 H         3.498378         0.533519        -0.253169
 H         2.613992         0.696742        -3.035187
 H         3.514986        -1.520031        -3.995621
 H         3.685991        -2.198806        -2.425246
 H         0.001327        -1.409064        -3.751482
 H         0.023864        -2.385407        -2.125262
 H         0.486996         0.561907        -2.382077
