19
Iteration:  2748
 C         0.312127         0.164279         0.454451
 C         1.235416        -0.240571        -0.644203
 O         2.189420        -1.248977        -0.404367
 C         2.697205         0.011630        -0.971135
 C         2.411232        -0.103834        -2.507073
 C         2.991722        -1.464596        -2.955703
 O         1.832267        -2.344805        -2.827070
 C         0.636830        -1.658596        -2.894094
 C         0.956147        -0.321042        -2.226930
 H         0.040666         1.210495         0.328977
 H        -0.673534        -0.337815         0.216501
 H         0.716561        -0.048790         1.420217
 H         3.488412         0.410146        -0.416299
 H         2.678349         0.767062        -3.027475
 H         3.232469        -1.276905        -4.024138
 H         3.809381        -1.860665        -2.415027
 H         0.169914        -1.471831        -3.873820
 H        -0.117871        -2.276684        -2.238003
 H         0.373358         0.606718        -2.552613
