19
Iteration:  1426charge 0 multiplicity 1
 C         0.219154         0.255754         0.373392
 C         1.225180        -0.169232        -0.625724
 O         2.156968        -1.093728        -0.184875
 C         2.686806         0.069481        -0.850145
 C         2.623385        -0.290083        -2.414812
 C         2.998744        -1.636750        -3.013431
 O         1.745120        -2.236697        -3.535349
 C         0.666242        -1.782861        -2.566936
 C         0.985287        -0.317798        -2.113343
 H        -0.443501         1.065926         0.077739
 H        -0.400331        -0.623397         0.401530
 H         0.560148         0.378165         1.457414
 H         3.290027         0.839332        -0.269863
 H         2.816081         0.638885        -3.170536
 H         3.701140        -1.452602        -3.850793
 H         3.543805        -2.396509        -2.382790
 H        -0.279380        -1.795789        -3.182326
 H         0.488781        -2.528986        -1.664214
 H         0.383724         0.499728        -2.598611
