19
Iteration:  1901
 C         0.314107        -0.000746         0.373325
 C         1.259408        -0.145612        -0.723569
 O         2.146653        -1.223484        -0.403386
 C         2.699845         0.010863        -0.914975
 C         2.529701        -0.092019        -2.499139
 C         2.977881        -1.523631        -2.934950
 O         1.768956        -2.351514        -2.809247
 C         0.606704        -1.594419        -2.750794
 C         0.934791        -0.240173        -2.282769
 H        -0.443083         0.666082         0.040657
 H        -0.145783        -0.926638         0.507566
 H         0.812678         0.425475         1.267955
 H         3.739108         0.468871        -0.444773
 H         2.885423         0.868037        -3.124102
 H         3.121358        -1.366739        -4.063230
 H         3.955061        -1.854255        -2.440817
 H         0.193075        -1.468014        -3.804008
 H        -0.012981        -2.234176        -2.148128
 H         0.322447         0.523278        -2.812064
