19
Iteration:  4948
 C         0.142588         0.442666         0.218274
 C         1.231169        -0.330613        -0.582255
 O         1.814502        -1.527008        -0.129580
 C         2.693842        -0.475676        -0.585720
 C         2.801574        -0.336971        -2.183003
 C         3.008425        -1.588991        -3.016603
 O         1.705633        -2.119848        -3.387566
 C         0.672854        -1.158977        -3.131847
 C         1.266103        -0.174031        -2.089410
 H         0.502922         0.951069         1.246081
 H        -0.485348         1.078917        -0.227646
 H        -0.499658        -0.443166         0.574820
 H         3.598978        -0.227827         0.212295
 H         3.481523         0.410122        -2.501562
 H         3.595787        -1.360789        -3.948241
 H         3.583650        -2.416165        -2.622497
 H         0.521280        -0.530078        -3.930342
 H        -0.334295        -1.624435        -2.917860
 H         0.852020         0.844060        -2.389653
