19
Iteration:  3682charge 0 multiplicity 1
 C         0.267637         0.343364         0.468702
 C         1.193340        -0.148718        -0.572107
 O         2.145303        -1.390156        -0.212675
 C         2.655988        -0.214066        -0.734568
 C         2.608102        -0.394270        -2.277514
 C         2.959803        -1.677619        -2.792973
 O         1.788379        -2.004761        -3.651031
 C         0.611253        -1.509888        -2.953926
 C         1.017418        -0.243638        -2.185960
 H         0.492560         0.119454         1.471664
 H         0.342496         1.464690         0.524972
 H        -0.872365         0.065953         0.142512
 H         3.490592         0.504811        -0.255180
 H         3.034661         0.453192        -2.900877
 H         3.876045        -1.778786        -3.427056
 H         2.955964        -2.479914        -2.017761
 H        -0.251372        -1.444451        -3.686677
 H         0.419354        -2.228796        -2.068691
 H         0.758504         0.654712        -2.625999
