19
Iteration:  2396
 C         0.232636         0.296103         0.346417
 C         1.230053        -0.185675        -0.620170
 O         2.199035        -1.182817        -0.156920
 C         2.703254        -0.008389        -0.827085
 C         2.531972        -0.190856        -2.397833
 C         2.905842        -1.415237        -3.316469
 O         1.841924        -2.390747        -3.070150
 C         0.672277        -1.789859        -2.756545
 C         1.008764        -0.353143        -2.137616
 H        -0.360937         1.200836         0.077388
 H        -0.650527        -0.546072         0.350939
 H         0.644665         0.360805         1.332342
 H         3.443389         0.644667        -0.228807
 H         2.670947         0.734391        -2.950371
 H         2.895206        -1.141647        -4.399698
 H         3.858053        -1.903868        -3.072462
 H        -0.186200        -1.696135        -3.574284
 H         0.148050        -2.388826        -1.997967
 H         0.423450         0.545696        -2.609732
