19
Iteration:  4168charge 0 multiplicity 1
 C         0.184323         0.250948         0.334270
 C         1.254381        -0.289914        -0.586339
 O         1.942868        -1.445929        -0.208635
 C         2.720736        -0.275709        -0.618279
 C         2.759641        -0.369080        -2.197511
 C         2.942642        -1.720457        -2.801852
 O         1.739168        -2.045467        -3.551160
 C         0.577821        -1.168306        -3.118983
 C         1.209166        -0.170348        -2.140293
 H         0.845182         0.510450         1.227478
 H        -0.337946         1.187182         0.000657
 H        -0.674574        -0.355442         0.531449
 H         3.465384        -0.109604         0.056479
 H         3.287713         0.443468        -2.718557
 H         3.683219        -1.887621        -3.567173
 H         3.102696        -2.423121        -2.037387
 H         0.091718        -0.654040        -4.002707
 H        -0.155384        -1.959634        -2.642664
 H         0.938994         0.895597        -2.379153
