19
Iteration:  1643
 C         0.291807         0.262387         0.425365
 C         1.224978        -0.202447        -0.635027
 O         2.266024        -1.066358        -0.143747
 C         2.652416         0.108966        -0.913528
 C         2.498438        -0.302185        -2.365974
 C         2.897016        -1.676228        -2.852712
 O         1.776070        -2.117290        -3.614874
 C         0.643922        -1.801056        -2.735202
 C         0.984558        -0.431181        -2.144392
 H        -0.580026         0.887305         0.146336
 H        -0.093818        -0.695664         0.915939
 H         0.898689         0.895905         1.185330
 H         3.261689         0.926884        -0.365533
 H         2.781820         0.530786        -2.939028
 H         3.884436        -1.842618        -3.439884
 H         2.939639        -2.210563        -1.854281
 H        -0.336032        -1.927712        -3.340318
 H         0.720624        -2.617452        -1.992168
 H         0.483302         0.376826        -2.764596
