19
Iteration:  1542
 C         0.326924         0.439047         0.425836
 C         1.187761        -0.154258        -0.690891
 O         2.033107        -1.370281        -0.272119
 C         2.668015        -0.191532        -0.908752
 C         2.499776        -0.092841        -2.419381
 C         2.884885        -1.323991        -3.347669
 O         2.026517        -2.400748        -2.864358
 C         0.712602        -1.749833        -2.720281
 C         0.894905        -0.324172        -2.168142
 H         0.241610         1.505253         0.396091
 H        -0.744342         0.008665         0.306076
 H         0.745131         0.106343         1.455953
 H         3.530909         0.203655        -0.427703
 H         2.659676         0.834051        -2.783528
 H         2.959872        -1.127186        -4.474455
 H         3.901912        -1.684262        -3.123074
 H         0.235350        -1.853995        -3.759417
 H         0.153277        -2.412910        -2.025498
 H         0.216353         0.391895        -2.645431
