19
Iteration:  3252
 C         0.351377         0.398451         0.435763
 C         1.216541        -0.212136        -0.606512
 O         1.958342        -1.401931        -0.346045
 C         2.711632        -0.108020        -0.813393
 C         2.505534        -0.161730        -2.375902
 C         2.944144        -1.410323        -3.152389
 O         1.902600        -2.355272        -3.072751
 C         0.698656        -1.629954        -2.841160
 C         1.007883        -0.338303        -2.164516
 H         0.298977        -0.125222         1.368916
 H         0.421232         1.499299         0.608226
 H        -0.793197         0.330800         0.065878
 H         3.478123         0.167997        -0.161805
 H         2.816277         0.758083        -2.841558
 H         3.248233        -1.064310        -4.189429
 H         3.810837        -1.873773        -2.589431
 H         0.324671        -1.383547        -3.763321
 H         0.020631        -2.175430        -2.246979
 H         0.318825         0.385934        -2.558085
