19
Iteration:   924charge 0 multiplicity 1
 C         0.290244         0.132116         0.457372
 C         1.256496        -0.277426        -0.638135
 O         2.330270        -1.128369        -0.270733
 C         2.659031         0.180752        -0.936859
 C         2.482834        -0.150825        -2.400889
 C         3.018069        -1.559447        -2.969560
 O         1.701482        -2.472582        -3.096114
 C         0.534660        -1.599895        -2.872364
 C         1.005068        -0.349503        -2.226471
 H        -0.649184         0.708087         0.117058
 H        -0.068042        -0.727696         0.921921
 H         0.868190         0.779854         1.201050
 H         3.313959         0.892432        -0.537856
 H         2.615444         0.770861        -3.011339
 H         3.587345        -1.413951        -3.898749
 H         3.717464        -2.067413        -2.318663
 H        -0.090945        -1.301306        -3.827477
 H        -0.161723        -2.248291        -2.367599
 H         0.357243         0.579969        -2.590740
