19
Iteration:  1675
 C         0.274387         0.378127         0.379415
 C         1.237965        -0.227259        -0.550788
 O         2.317508        -1.099813        -0.120003
 C         2.659114         0.118009        -0.872909
 C         2.474795        -0.300164        -2.361266
 C         2.907245        -1.701024        -2.893233
 O         1.789304        -2.051194        -3.654517
 C         0.649086        -1.865885        -2.796665
 C         0.966878        -0.510722        -2.072889
 H        -0.473106         0.936309        -0.097171
 H        -0.250982        -0.463221         0.965794
 H         0.783864         0.966052         1.261449
 H         3.149241         1.071581        -0.330357
 H         2.651374         0.421596        -3.076578
 H         3.838673        -1.802806        -3.561887
 H         2.895854        -2.252129        -1.947784
 H        -0.341210        -1.874821        -3.428594
 H         0.585269        -2.716869        -2.016586
 H         0.376054         0.320339        -2.597254
