19
Iteration:  3172charge 0 multiplicity 1
 C         0.171971         0.326106         0.350059
 C         1.224124        -0.234966        -0.623513
 O         2.164684        -1.345474        -0.290683
 C         2.726410        -0.126280        -0.857370
 C         2.543956        -0.185145        -2.384996
 C         2.955147        -1.455612        -3.159558
 O         1.828723        -2.285721        -2.975299
 C         0.631231        -1.621969        -2.863461
 C         1.023880        -0.310481        -2.112900
 H        -0.316882        -0.542653         1.054663
 H         0.593446         1.001791         1.116597
 H        -0.501358         0.836385        -0.284232
 H         3.600547         0.332287        -0.281685
 H         2.720803         0.749013        -2.908405
 H         3.098841        -1.031160        -4.222722
 H         3.832808        -1.974263        -2.922241
 H         0.167252        -1.405276        -3.784136
 H        -0.084378        -2.294529        -2.315879
 H         0.626091         0.591792        -2.592865
