19
Iteration:  1443
 C         0.181415         0.300172         0.369794
 C         1.236470        -0.126165        -0.637976
 O         2.192505        -1.192311        -0.209841
 C         2.672062         0.024759        -0.828541
 C         2.547346        -0.192738        -2.330478
 C         2.959525        -1.549064        -3.093126
 O         1.764716        -2.286715        -3.357404
 C         0.657978        -1.773864        -2.676932
 C         1.054648        -0.397902        -2.199847
 H        -0.331885         1.164229        -0.056269
 H        -0.557514        -0.450988         0.814003
 H         0.736955         0.580243         1.276694
 H         3.456761         0.472028        -0.339074
 H         2.858532         0.632858        -2.840665
 H         3.346213        -1.345475        -4.092641
 H         3.608603        -2.105148        -2.417053
 H        -0.252395        -1.817254        -3.246538
 H         0.568641        -2.411193        -1.831184
 H         0.487692         0.397159        -2.660333
