19
Iteration:  3420charge 0 multiplicity 1
 C         0.199231         0.343104         0.385347
 C         1.203739        -0.115079        -0.630935
 O         2.106243        -1.268494        -0.143669
 C         2.716824        -0.134421        -0.768381
 C         2.643904        -0.295216        -2.286976
 C         3.033281        -1.624903        -2.973869
 O         1.784703        -2.094843        -3.611678
 C         0.556334        -1.668403        -2.741392
 C         1.002749        -0.380832        -2.157520
 H         0.214542         1.420078         0.562413
 H        -0.801990         0.007939         0.178399
 H         0.686808        -0.075272         1.343818
 H         3.527262         0.303805        -0.250521
 H         2.929741         0.648120        -2.814979
 H         3.700709        -1.438717        -3.851973
 H         3.480071        -2.401275        -2.230278
 H        -0.140638        -1.532018        -3.482122
 H         0.220436        -2.319602        -1.943851
 H         0.601150         0.584935        -2.579987
