19
Iteration:   226charge 0 multiplicity 1
 C         0.215093         0.355871         0.387107
 C         1.235431        -0.210410        -0.598497
 O         2.178780        -1.204732        -0.065956
 C         2.714602        -0.071621        -0.825889
 C         2.492361        -0.146886        -2.429416
 C         2.810398        -1.444621        -3.282418
 O         1.883022        -2.467626        -3.013572
 C         0.669678        -1.659448        -2.932098
 C         1.061627        -0.369885        -2.180205
 H        -0.740221         0.529489        -0.028940
 H         0.148655        -0.476831         1.252333
 H         0.586425         1.204868         0.893440
 H         3.506181         0.364882        -0.341405
 H         2.789300         0.753795        -2.975223
 H         2.708073        -1.148289        -4.362498
 H         3.900262        -1.853460        -3.151204
 H         0.432394        -1.275394        -4.008410
 H        -0.078333        -2.325113        -2.429539
 H         0.322610         0.411811        -2.450584
