19
Iteration:  1772
 C         0.289473         0.422401         0.375996
 C         1.220211        -0.183587        -0.678921
 O         2.041161        -1.286907        -0.307086
 C         2.731154        -0.185436        -0.919700
 C         2.407305        -0.186436        -2.462747
 C         3.007475        -1.384534        -3.087672
 O         1.889789        -2.268121        -3.255481
 C         0.719354        -1.807739        -2.507608
 C         0.934971        -0.344937        -2.167966
 H         0.144713         1.461526         0.269086
 H        -0.801325        -0.031006         0.532669
 H         0.756817         0.203394         1.502541
 H         3.641848         0.345973        -0.310527
 H         2.613210         0.798131        -2.873495
 H         3.453355        -1.009109        -4.057985
 H         3.830286        -1.842189        -2.523569
 H        -0.087534        -2.125370        -3.254683
 H         0.583176        -2.434740        -1.614630
 H         0.198140         0.425595        -2.522924
