19
Iteration:  1738charge 0 multiplicity 1
 C         0.243651         0.401279         0.360454
 C         1.213411        -0.211693        -0.632388
 O         2.068067        -1.227472        -0.289692
 C         2.714124        -0.061976        -0.762515
 C         2.502815        -0.170492        -2.413060
 C         2.953886        -1.433674        -3.143648
 O         1.809173        -2.271452        -3.384627
 C         0.750121        -1.861572        -2.514355
 C         1.019897        -0.396593        -2.156506
 H         0.093312         1.490980         0.206314
 H        -0.774854        -0.161680         0.415852
 H         0.882027         0.411017         1.398564
 H         3.487812         0.624430        -0.123046
 H         2.672150         0.708878        -3.109675
 H         3.237889        -1.226924        -4.182533
 H         3.686409        -2.039174        -2.579960
 H        -0.181489        -2.048850        -3.162790
 H         0.701074        -2.477949        -1.620213
 H         0.332728         0.388942        -2.545675
