19
Iteration:  2554charge 0 multiplicity 1
 C         0.174821         0.253752         0.256475
 C         1.245797        -0.250790        -0.706547
 O         2.269321        -1.258398        -0.274869
 C         2.714023        -0.089559        -0.868888
 C         2.485134        -0.138356        -2.462715
 C         2.914526        -1.364647        -3.227146
 O         1.901720        -2.306959        -2.867319
 C         0.595139        -1.749454        -2.653751
 C         0.977214        -0.342312        -2.145646
 H         0.072084         1.286211        -0.055809
 H        -0.827885        -0.266551         0.167155
 H         0.470214        -0.010484         1.322300
 H         3.204574         0.530188        -0.292502
 H         2.679685         0.798606        -3.024300
 H         2.920786        -1.047498        -4.281337
 H         3.876141        -1.850899        -3.001530
 H         0.036086        -1.600861        -3.554061
 H         0.064137        -2.294588        -1.995985
 H         0.448215         0.544282        -2.525242
