19
Iteration:  3296charge 0 multiplicity 1
 C         0.235142         0.329308         0.289421
 C         1.223562        -0.267432        -0.604336
 O         2.090318        -1.335746        -0.143039
 C         2.713582        -0.165768        -0.714171
 C         2.633445        -0.138625        -2.290070
 C         2.915554        -1.453338        -3.209729
 O         1.781233        -2.358372        -3.270754
 C         0.634580        -1.606472        -2.773145
 C         1.100150        -0.272450        -2.188165
 H         0.698621         0.707655         1.155589
 H        -0.260204         1.193408        -0.282017
 H        -0.766534        -0.369815         0.410581
 H         3.265788         0.552139        -0.112108
 H         2.850712         0.862267        -2.664148
 H         3.071666        -1.070441        -4.277448
 H         3.837452        -1.981083        -2.824351
 H        -0.105174        -1.395880        -3.518844
 H         0.267469        -2.280790        -2.041807
 H         0.675126         0.644688        -2.565068
