19
Iteration:  3383charge 0 multiplicity 1
 C         0.310830         0.399817         0.443372
 C         1.181925        -0.233489        -0.689692
 O         2.134746        -1.408218        -0.364025
 C         2.637227        -0.112219        -0.798824
 C         2.582785        -0.154123        -2.302836
 C         3.021399        -1.554376        -2.849348
 O         1.831509        -2.239126        -3.405766
 C         0.580610        -1.605279        -2.794110
 C         0.963621        -0.254363        -2.194924
 H         0.725759         1.367958         0.792546
 H        -0.805006         0.600095         0.243110
 H         0.312639        -0.361382         1.343063
 H         3.444893         0.200747        -0.053013
 H         2.941189         0.709831        -2.866994
 H         3.774455        -1.435588        -3.642588
 H         3.487492        -2.174801        -2.098414
 H        -0.321292        -1.585292        -3.575255
 H         0.194967        -2.426233        -2.133349
 H         0.393060         0.500533        -2.698341
