19
Iteration:  1126
 C         0.214325         0.177393         0.368668
 C         1.234250        -0.117627        -0.667522
 O         2.165894        -1.110031        -0.216220
 C         2.707975         0.070233        -0.934548
 C         2.609559        -0.205473        -2.414432
 C         2.962350        -1.624911        -2.952103
 O         1.719142        -2.248499        -3.448634
 C         0.661479        -1.725409        -2.564724
 C         0.981909        -0.364594        -2.144527
 H        -0.610542         0.655135        -0.029604
 H        -0.177590        -0.892175         0.778566
 H         0.580162         0.778033         1.109945
 H         3.610006         0.660479        -0.416393
 H         3.079120         0.528970        -3.065144
 H         3.608686        -1.633712        -3.791782
 H         3.351826        -2.232938        -2.114076
 H        -0.293140        -1.719218        -3.059673
 H         0.672853        -2.459510        -1.669230
 H         0.502454         0.419415        -2.633939
