19
Iteration:  2551
 C         0.167264         0.246635         0.252216
 C         1.231317        -0.248491        -0.691719
 O         2.288571        -1.254487        -0.280219
 C         2.698833        -0.099254        -0.904888
 C         2.510424        -0.113986        -2.464991
 C         2.901037        -1.373375        -3.212757
 O         1.900242        -2.323122        -2.863475
 C         0.589429        -1.724400        -2.661306
 C         0.991630        -0.369765        -2.131702
 H         0.047375         1.271163         0.061951
 H        -0.842728        -0.364181         0.115368
 H         0.432709         0.080092         1.259458
 H         3.249629         0.622993        -0.200235
 H         2.674197         0.787499        -2.984253
 H         2.867160        -1.069844        -4.255067
 H         3.854210        -1.805715        -3.017526
 H         0.074179        -1.511297        -3.580731
 H        -0.005495        -2.327146        -1.942742
 H         0.509913         0.614445        -2.591077
