19
Iteration:  2759
 C         0.296364         0.148991         0.419158
 C         1.205414        -0.282719        -0.686530
 O         2.292352        -1.243823        -0.356377
 C         2.693815        -0.009475        -0.901662
 C         2.483042        -0.064197        -2.461003
 C         2.902646        -1.384681        -2.965108
 O         1.820133        -2.408354        -2.824215
 C         0.602586        -1.639907        -2.947172
 C         0.920265        -0.295740        -2.281577
 H         0.244231         1.275475         0.339248
 H        -0.701008        -0.384577         0.640274
 H         0.880660         0.119036         1.308555
 H         3.463612         0.581461        -0.506879
 H         2.857555         0.657522        -3.117029
 H         3.435335        -1.503668        -3.929541
 H         3.554106        -1.794700        -2.248929
 H         0.309216        -1.635346        -3.989895
 H        -0.259816        -2.143354        -2.305072
 H         0.119658         0.463917        -2.635655
