19
Iteration:  2834
 C         0.238615         0.131433         0.355885
 C         1.280874        -0.204869        -0.689712
 O         2.244837        -1.104360        -0.184681
 C         2.725539         0.061211        -0.880693
 C         2.508807        -0.210557        -2.364002
 C         2.939374        -1.515401        -3.083295
 O         1.801647        -2.365355        -3.124572
 C         0.532642        -1.635860        -2.798626
 C         0.982899        -0.339487        -2.153674
 H        -0.681549         0.652338        -0.138674
 H         0.030704        -0.832851         0.875900
 H         0.501436         0.777137         1.144452
 H         3.496981         0.587158        -0.412652
 H         2.829395         0.611816        -2.959797
 H         3.258158        -1.363013        -4.102118
 H         3.711723        -2.088191        -2.614777
 H        -0.000524        -1.442389        -3.763424
 H        -0.041912        -2.431229        -2.279978
 H         0.600156         0.482733        -2.651285
