19
Iteration:  2459
 C         0.308267         0.169619         0.443894
 C         1.242041        -0.230283        -0.648911
 O         2.308380        -1.186986        -0.373867
 C         2.631739         0.088446        -0.959366
 C         2.456712        -0.118252        -2.439032
 C         3.014078        -1.487997        -2.791159
 O         1.740685        -2.414823        -3.069253
 C         0.631448        -1.643022        -2.925222
 C         0.899265        -0.365149        -2.166644
 H        -0.632878         0.712380         0.028187
 H         0.099309        -0.633901         1.009103
 H         0.913475         0.717695         1.227629
 H         3.385060         0.695115        -0.424248
 H         2.697950         0.717005        -3.158058
 H         3.343700        -1.392043        -3.822010
 H         3.747407        -2.064236        -2.181751
 H         0.332810        -1.290862        -3.899422
 H        -0.239411        -2.364144        -2.522336
 H         0.316455         0.441242        -2.555935
