19
Iteration:  2553
 C         0.172513         0.254111         0.254846
 C         1.241035        -0.249779        -0.703173
 O         2.276591        -1.256488        -0.276636
 C         2.710068        -0.093540        -0.879729
 C         2.493197        -0.129465        -2.464718
 C         2.911138        -1.368059        -3.222718
 O         1.901425        -2.311167        -2.865641
 C         0.590490        -1.743509        -2.655273
 C         0.982638        -0.352518        -2.139451
 H         0.069908         1.261458        -0.017818
 H        -0.848933        -0.308370         0.152513
 H         0.456112         0.013826         1.300855
 H         3.200338         0.545630        -0.271530
 H         2.674704         0.787806        -3.010384
 H         2.903958        -1.051647        -4.262759
 H         3.862640        -1.833602        -3.010736
 H         0.057703        -1.567212        -3.545730
 H         0.053315        -2.288200        -1.996676
 H         0.470001         0.581807        -2.553823
