19
Iteration:  1236charge 0 multiplicity 1
 C         0.287922         0.360537         0.375061
 C         1.235853        -0.228201        -0.616432
 O         2.140840        -1.249287        -0.201662
 C         2.659979        -0.087173        -0.888856
 C         2.499494        -0.116717        -2.398178
 C         2.938269        -1.358705        -3.334693
 O         1.882592        -2.494158        -2.872798
 C         0.658469        -1.688701        -2.840245
 C         0.963254        -0.347093        -2.160921
 H         0.178427         1.336417         0.330985
 H        -0.699821        -0.148914         0.236597
 H         0.568316         0.006816         1.286407
 H         3.510373         0.474239        -0.328233
 H         2.886979         0.844855        -2.838230
 H         2.679783        -1.044097        -4.311897
 H         3.928675        -1.776621        -3.259229
 H         0.429100        -1.513948        -3.893696
 H        -0.182302        -2.295228        -2.335719
 H         0.359946         0.466060        -2.535525
