19
Iteration:   437charge 0 multiplicity 1
 C         0.328877         0.608291         0.439871
 C         1.151789        -0.120288        -0.649592
 O         2.119650        -1.176246        -0.088781
 C         2.586686        -0.059477        -0.839937
 C         2.471001        -0.246602        -2.340103
 C         2.998149        -1.439047        -3.137563
 O         1.788499        -2.217911        -3.628508
 C         0.825774        -2.054230        -2.639040
 C         0.924197        -0.554757        -2.075140
 H         0.112424         1.678036         0.113908
 H        -0.725166         0.148031         0.864441
 H         1.045643         0.588076         1.368700
 H         3.245979         0.705610        -0.324012
 H         2.754552         0.718636        -2.880224
 H         3.722802        -1.351975        -4.046596
 H         3.634787        -2.040672        -2.365147
 H        -0.154560        -2.384297        -3.198739
 H         1.096692        -2.678558        -1.778041
 H         0.241090         0.189436        -2.619823
