19
Iteration:  2074
 C         0.260667         0.408499         0.423677
 C         1.277707        -0.097943        -0.626770
 O         2.027499        -1.356320        -0.312789
 C         2.734477        -0.209405        -0.845452
 C         2.419433        -0.136679        -2.360063
 C         2.926154        -1.317279        -3.346839
 O         1.984291        -2.404166        -2.953102
 C         0.709262        -1.781352        -2.691422
 C         0.933372        -0.316531        -2.203190
 H        -0.356395         1.169675        -0.263061
 H        -0.325867        -0.408437         0.798088
 H         0.553222         1.145538         1.192725
 H         3.650852         0.220587        -0.331771
 H         2.692836         0.884020        -2.796111
 H         2.858818        -1.001992        -4.400553
 H         3.961002        -1.614580        -3.069979
 H         0.020519        -1.802380        -3.517561
 H         0.252294        -2.501174        -1.944983
 H         0.324528         0.345744        -2.829152
