19
Iteration:  2199
 C         0.236652         0.017381         0.359001
 C         1.242991        -0.131963        -0.678929
 O         2.227575        -1.126084        -0.323030
 C         2.672419         0.129853        -0.946188
 C         2.514307        -0.176623        -2.480659
 C         2.970796        -1.607211        -2.917450
 O         1.792732        -2.370629        -3.088872
 C         0.572775        -1.655148        -2.742195
 C         0.999720        -0.255490        -2.179250
 H        -0.205360         1.023930         0.287727
 H        -0.543577        -0.740226         0.550233
 H         0.879092        -0.015205         1.278368
 H         3.375390         0.839984        -0.294739
 H         2.798361         0.567777        -3.197167
 H         3.498986        -1.467341        -3.832234
 H         3.711584        -2.024124        -2.207169
 H        -0.014822        -1.683309        -3.632682
 H         0.115625        -2.171569        -1.975945
 H         0.493973         0.643065        -2.588331
