19
Iteration:   662
 C         0.172929         0.263529         0.316845
 C         1.286585        -0.112423        -0.668835
 O         2.111813        -1.244988        -0.228951
 C         2.723433        -0.027045        -0.915010
 C         2.536257        -0.204098        -2.442852
 C         2.926656        -1.377065        -3.226412
 O         1.871971        -2.394547        -3.107974
 C         0.632639        -1.768439        -2.565276
 C         1.013834        -0.343882        -2.117488
 H        -0.258242         1.321188         0.151678
 H        -0.553519        -0.408577         0.343939
 H         0.668942         0.431205         1.274251
 H         3.577219         0.421510        -0.301758
 H         2.837078         0.819471        -2.902429
 H         2.992090        -1.048052        -4.256335
 H         3.839759        -1.846751        -2.876096
 H         0.046709        -1.838212        -3.511847
 H         0.176380        -2.388962        -1.725547
 H         0.377428         0.469128        -2.600468
