19
Iteration:  1833charge 0 multiplicity 1
 C         0.297308         0.314671         0.435679
 C         1.282671        -0.250376        -0.603595
 O         2.225622        -1.178541        -0.035463
 C         2.676629        -0.009244        -0.933628
 C         2.461330        -0.170032        -2.454526
 C         2.982545        -1.445208        -3.156604
 O         1.837020        -2.406739        -3.103237
 C         0.596779        -1.702964        -2.950148
 C         0.927612        -0.417877        -2.141127
 H        -0.364765         1.112952        -0.077415
 H        -0.320018        -0.471868         0.627320
 H         0.716923         0.749283         1.250173
 H         3.337207         0.677355        -0.322607
 H         2.782887         0.740234        -3.104274
 H         3.113617        -1.226711        -4.278767
 H         3.813752        -1.993222        -2.658192
 H         0.270887        -1.210847        -3.873694
 H        -0.257678        -2.314373        -2.561842
 H         0.163148         0.337854        -2.348270
