19
Iteration:  3959charge 0 multiplicity 1
 C         0.324677         0.357681         0.384983
 C         1.139173        -0.248701        -0.646215
 O         1.826999        -1.410758        -0.259803
 C         2.711076        -0.375918        -0.708737
 C         2.693212        -0.336526        -2.251821
 C         2.981002        -1.631911        -2.879453
 O         1.825928        -1.946187        -3.574642
 C         0.642153        -1.450620        -2.875159
 C         1.149621        -0.181851        -2.139871
 H        -0.148760        -0.602604         0.961062
 H         0.841411         1.026607         1.085833
 H        -0.298125         1.066605        -0.094312
 H         3.552781        -0.122705        -0.016988
 H         3.114671         0.620874        -2.649963
 H         3.832082        -1.693358        -3.568873
 H         3.063781        -2.560086        -2.149556
 H        -0.181569        -1.414265        -3.589841
 H         0.329782        -2.080244        -2.000846
 H         0.695868         0.761476        -2.474668
