19
Iteration:  4443charge 0 multiplicity 1
 C         0.224488         0.379300         0.414615
 C         1.134604        -0.194863        -0.640868
 O         1.896956        -1.556791        -0.424071
 C         2.604294        -0.382209        -0.703960
 C         2.780897        -0.346128        -2.161513
 C         3.019523        -1.694886        -2.781483
 O         1.792709        -2.080359        -3.452923
 C         0.606920        -1.238916        -3.009446
 C         1.227012        -0.102855        -2.145969
 H         0.520218        -0.036092         1.340249
 H         0.467228         1.467270         0.507690
 H        -0.894049         0.202544         0.307411
 H         3.489090        -0.231828         0.123633
 H         3.273894         0.558448        -2.510507
 H         3.910440        -1.557751        -3.504441
 H         3.183550        -2.544465        -1.996949
 H         0.029837        -0.926802        -3.944655
 H        -0.178879        -1.738484        -2.485550
 H         0.931950         0.833906        -2.704070
