19
Iteration:  4274
 C         0.362266         0.479919         0.360138
 C         1.164245        -0.164084        -0.623618
 O         1.692633        -1.535966        -0.236895
 C         2.630775        -0.427879        -0.637405
 C         2.699035        -0.346325        -2.158328
 C         2.996330        -1.601797        -2.916926
 O         1.850277        -1.953458        -3.637357
 C         0.705503        -1.510997        -2.876515
 C         1.181158        -0.151351        -2.186465
 H         0.761258         0.187429         1.404827
 H         0.376728         1.544324         0.298264
 H        -0.632828         0.119372         0.450575
 H         3.445026        -0.196043         0.083950
 H         3.272310         0.520805        -2.602443
 H         3.766968        -1.397847        -3.697917
 H         3.396809        -2.476690        -2.239070
 H        -0.011809        -1.391914        -3.771812
 H         0.282245        -2.312374        -2.258969
 H         0.719053         0.776358        -2.453037
