19
Iteration:   599charge 0 multiplicity 1
 C         0.298730         0.113661         0.425226
 C         1.229183        -0.253770        -0.628230
 O         2.369537        -1.214790        -0.353116
 C         2.673232         0.087345        -0.992284
 C         2.446031        -0.095643        -2.439028
 C         2.919726        -1.503227        -2.962501
 O         1.807957        -2.417004        -2.760209
 C         0.603363        -1.653162        -2.993140
 C         0.852578        -0.244461        -2.234251
 H         0.296704         1.212208         0.291885
 H        -0.910174        -0.249853         0.384120
 H         0.736234        -0.277768         1.413841
 H         3.552350         0.691424        -0.584937
 H         2.729399         0.601423        -3.323353
 H         3.439502        -1.530329        -4.011379
 H         3.681867        -1.894823        -2.245046
 H         0.506746        -1.468587        -4.051059
 H        -0.357405        -2.119423        -2.710315
 H         0.165064         0.604496        -2.672710
