19
Iteration:  2718charge 0 multiplicity 1
 C         0.197123         0.204678         0.424243
 C         1.229459        -0.137670        -0.693128
 O         2.161051        -1.200879        -0.341925
 C         2.670075        -0.041877        -0.844542
 C         2.512816        -0.124300        -2.466308
 C         2.962007        -1.446591        -3.168619
 O         1.846071        -2.435903        -2.949248
 C         0.689456        -1.701761        -2.725329
 C         1.005556        -0.286057        -2.200942
 H        -0.004359         1.211038         0.332495
 H        -0.754487        -0.327898         0.429545
 H         0.643686        -0.152858         1.420193
 H         3.483664         0.427662        -0.215444
 H         2.945429         0.787759        -2.930740
 H         2.904534        -1.169978        -4.269739
 H         3.959687        -1.916744        -2.943590
 H         0.034069        -1.637058        -3.693776
 H         0.117865        -2.277229        -1.969107
 H         0.311228         0.516406        -2.628170
