19
Iteration:   624charge 0 multiplicity 1
 C         0.257557         0.183472         0.392843
 C         1.215854        -0.219222        -0.683928
 O         2.240729        -1.208607        -0.367489
 C         2.681831         0.085117        -0.951470
 C         2.559525        -0.133054        -2.457168
 C         2.882838        -1.462149        -3.049029
 O         1.861238        -2.448442        -2.874169
 C         0.602711        -1.609752        -2.781120
 C         0.966257        -0.333772        -2.187272
 H         0.016769         1.156896         0.555116
 H        -0.760967        -0.407301         0.210804
 H         0.699146        -0.431686         1.209185
 H         3.355513         0.712626        -0.455652
 H         2.757751         0.511304        -3.238264
 H         3.184735        -1.330488        -4.069265
 H         3.787740        -1.836682        -2.523698
 H         0.049469        -1.448202        -3.720815
 H        -0.092678        -2.110484        -2.150274
 H         0.328987         0.439919        -2.564753
