19
Iteration:  4080charge 0 multiplicity 1
 C         0.277233         0.432504         0.253773
 C         1.227868        -0.226381        -0.580134
 O         1.735300        -1.422869        -0.110275
 C         2.730268        -0.507609        -0.573667
 C         2.727187        -0.407785        -2.096518
 C         2.948262        -1.637081        -2.990353
 O         1.727542        -1.809282        -3.793777
 C         0.735313        -1.515499        -2.835026
 C         1.215101        -0.210873        -2.182153
 H         0.748884         0.573009         1.350531
 H        -0.044601         1.393739        -0.169847
 H        -0.676746        -0.132548         0.322034
 H         3.505178        -0.129943         0.132361
 H         3.303897         0.536658        -2.373055
 H         3.771111        -1.505289        -3.699301
 H         3.123322        -2.458550        -2.307694
 H        -0.163387        -1.206311        -3.376342
 H         0.839143        -2.374799        -2.059703
 H         0.787111         0.766792        -2.549147
