19
Iteration:   748charge 0 multiplicity 1
 C         0.445560         0.696165         0.492784
 C         1.153833        -0.151401        -0.564770
 O         1.996454        -1.261979        -0.193972
 C         2.557629        -0.225021        -0.914130
 C         2.434880        -0.160477        -2.388808
 C         2.977063        -1.260517        -3.286917
 O         2.008406        -2.375804        -3.260497
 C         0.765293        -1.979442        -2.675736
 C         0.883613        -0.570051        -2.175917
 H        -0.091833         1.653725        -0.010316
 H        -0.421225        -0.058940         0.867486
 H         1.029368         0.935881         1.421488
 H         3.445804         0.204547        -0.267214
 H         2.590525         0.892168        -2.641335
 H         3.120658        -0.860624        -4.367701
 H         3.939178        -1.636960        -2.872789
 H         0.047293        -1.863637        -3.519527
 H         0.414585        -2.629611        -1.853589
 H         0.182255         0.236624        -2.552822
