19
Iteration:  1582charge 0 multiplicity 1
 C         0.261561         0.315679         0.271328
 C         1.266464        -0.241600        -0.627468
 O         2.154180        -1.301279        -0.253448
 C         2.680943         0.031901        -0.829395
 C         2.528495        -0.095378        -2.434147
 C         2.964179        -1.428247        -3.179870
 O         1.839224        -2.363254        -3.162503
 C         0.633066        -1.772774        -2.589068
 C         0.947785        -0.343507        -2.171602
 H         0.014307         1.404583        -0.042432
 H        -0.615759        -0.231524         0.373901
 H         0.696077         0.264056         1.176958
 H         3.452755         0.347097        -0.230551
 H         2.850740         1.007598        -2.804284
 H         3.157513        -1.322875        -4.184435
 H         3.660811        -1.952290        -2.529400
 H        -0.058901        -1.632814        -3.347375
 H         0.185186        -2.457922        -1.785921
 H         0.325682         0.479847        -2.477376
