19
Iteration:  3782charge 0 multiplicity 1
 C         0.355508         0.581741         0.316281
 C         1.201409        -0.262963        -0.650586
 O         1.843843        -1.468625        -0.117922
 C         2.677390        -0.406058        -0.632793
 C         2.718195        -0.351505        -2.166020
 C         2.993578        -1.453312        -3.113646
 O         1.721398        -1.954787        -3.664145
 C         0.733054        -1.665480        -2.771702
 C         1.048619        -0.306157        -2.136517
 H         0.753646         1.637698         0.509647
 H        -0.650755         0.556329        -0.145975
 H         0.288586         0.214947         1.396002
 H         3.325068         0.073569         0.147716
 H         3.122216         0.654567        -2.338615
 H         3.610202        -1.276266        -3.991509
 H         3.494705        -2.359194        -2.532949
 H        -0.154869        -1.688041        -3.340446
 H         0.738227        -2.348303        -1.939511
 H         0.631991         0.543069        -2.632632
