19
Iteration:  4946charge 0 multiplicity 1
 C         0.158473         0.439547         0.207235
 C         1.236715        -0.345465        -0.582503
 O         1.806669        -1.518773        -0.131935
 C         2.695057        -0.471709        -0.575952
 C         2.807426        -0.348335        -2.194988
 C         3.026740        -1.579407        -2.996349
 O         1.698577        -2.123374        -3.394110
 C         0.665951        -1.154844        -3.140930
 C         1.245200        -0.182540        -2.078188
 H         0.581581         0.911682         1.216607
 H        -0.521517         1.110578        -0.267482
 H        -0.468042        -0.429488         0.566824
 H         3.617959        -0.227257         0.158705
 H         3.467987         0.499030        -2.423264
 H         3.556544        -1.349022        -3.891647
 H         3.567711        -2.367930        -2.608056
 H         0.510334        -0.474414        -3.917966
 H        -0.343449        -1.617002        -2.877043
 H         0.857594         0.791041        -2.425927
