19
Iteration:  4676
 C         0.185064         0.287592         0.226563
 C         1.229194        -0.256598        -0.605484
 O         1.784313        -1.461595        -0.201672
 C         2.709352        -0.461414        -0.669336
 C         2.807094        -0.355296        -2.196776
 C         3.021865        -1.654484        -3.020496
 O         1.714418        -2.126320        -3.367514
 C         0.679593        -1.201045        -2.965803
 C         1.241460        -0.028344        -2.112858
 H         0.208401         0.160047         1.383567
 H         0.026829         1.297117         0.045696
 H        -0.792638        -0.229734        -0.063981
 H         3.340550         0.066531         0.131606
 H         3.595544         0.349573        -2.320701
 H         3.509638        -1.178706        -3.896857
 H         3.617606        -2.444893        -2.463661
 H         0.271586        -0.874572        -3.872160
 H        -0.064755        -1.755775        -2.496589
 H         0.763825         0.916556        -2.439739
