19
Iteration:  3178
 C         0.193846         0.309828         0.378466
 C         1.193062        -0.219142        -0.545442
 O         2.165442        -1.332958        -0.336836
 C         2.747585        -0.171489        -0.850917
 C         2.514836        -0.197804        -2.388281
 C         2.951552        -1.396783        -3.159262
 O         1.833549        -2.354353        -2.953392
 C         0.668947        -1.594391        -2.861957
 C         1.008585        -0.297794        -2.178719
 H        -0.254804        -0.380481         1.016151
 H         0.475806         1.127953         1.067882
 H        -0.596509         0.875528        -0.207944
 H         3.576388         0.266273        -0.266367
 H         2.784984         0.780755        -2.887306
 H         3.036980        -1.170722        -4.214036
 H         3.940438        -1.912133        -2.849597
 H         0.155369        -1.247799        -3.901213
 H        -0.023605        -2.233785        -2.325869
 H         0.533288         0.562703        -2.731432
