19
Iteration:  4003
 C         0.364767         0.561040         0.472404
 C         1.150090        -0.223610        -0.582886
 O         1.741385        -1.444251        -0.185393
 C         2.628957        -0.448701        -0.646151
 C         2.676898        -0.399415        -2.174510
 C         3.033097        -1.582491        -3.027877
 O         1.868188        -1.934004        -3.730784
 C         0.720654        -1.563727        -2.890173
 C         1.042826        -0.266470        -2.155966
 H         0.217781        -0.164355         1.423553
 H         1.008521         1.395839         0.809503
 H        -0.432928         1.195420         0.147295
 H         3.421199        -0.115698         0.118048
 H         3.317723         0.508702        -2.459027
 H         3.743960        -1.303971        -3.827983
 H         3.517887        -2.433009        -2.413994
 H        -0.175078        -1.407030        -3.516657
 H         0.383720        -2.397596        -2.211432
 H         0.768838         0.723942        -2.594145
