19
Iteration:  3647
 C         0.270918         0.211864         0.353837
 C         1.283997        -0.233101        -0.644506
 O         2.096209        -1.319015        -0.169611
 C         2.741331        -0.113248        -0.689236
 C         2.678026        -0.300030        -2.302334
 C         2.951638        -1.628122        -2.851350
 O         1.692443        -2.069768        -3.514926
 C         0.519796        -1.475652        -2.959712
 C         1.107580        -0.320417        -2.154198
 H         0.099124        -0.500361         1.187993
 H         0.486751         1.297173         0.585388
 H        -0.794715         0.361545        -0.204251
 H         3.409234         0.394715        -0.032293
 H         3.105595         0.584115        -2.824892
 H         3.809072        -1.705671        -3.585629
 H         3.174878        -2.259330        -1.894154
 H        -0.247169        -1.270271        -3.811073
 H        -0.088011        -2.045359        -2.187613
 H         0.736960         0.542232        -2.547459
