19
Iteration:  3567
 C         0.296794         0.460668         0.397371
 C         1.183735        -0.273795        -0.605445
 O         1.939225        -1.475758        -0.313221
 C         2.674162        -0.266181        -0.755857
 C         2.647779        -0.179801        -2.313871
 C         3.040358        -1.517011        -3.006725
 O         1.777053        -2.189744        -3.427527
 C         0.651880        -1.583267        -2.709037
 C         1.077485        -0.167392        -2.188746
 H        -0.484303        -0.383973         0.845023
 H         0.889223         0.881661         1.300530
 H        -0.332446         1.151279        -0.153634
 H         3.423681         0.143620        -0.025844
 H         2.957503         0.754859        -2.771350
 H         3.663595        -1.386343        -3.916476
 H         3.613443        -2.189287        -2.234837
 H        -0.147946        -1.586510        -3.525580
 H         0.370339        -2.234032        -1.861210
 H         0.662145         0.684699        -2.855160
