19
Iteration:   692
 C         0.236162         0.537955         0.341660
 C         1.253085        -0.160457        -0.626952
 O         2.111585        -1.349177        -0.184143
 C         2.708191        -0.109874        -0.817242
 C         2.491791        -0.198491        -2.425714
 C         2.906240        -1.317008        -3.308291
 O         1.927214        -2.332517        -3.190754
 C         0.694330        -1.871940        -2.608591
 C         0.932766        -0.433243        -2.154727
 H        -0.395667         1.258425        -0.263978
 H        -0.567076        -0.180216         0.920268
 H         0.807026         1.053575         1.061238
 H         3.457413         0.387395        -0.114906
 H         2.714521         0.759197        -2.719257
 H         3.102902        -0.964635        -4.328798
 H         3.868960        -1.708210        -2.936936
 H        -0.056262        -2.095689        -3.397921
 H         0.411915        -2.454862        -1.748446
 H         0.318202         0.351167        -2.501536
