19
Iteration:  4922
 C         0.290366         0.429380         0.319661
 C         1.215149        -0.345630        -0.622585
 O         1.840012        -1.553727        -0.202362
 C         2.648682        -0.455950        -0.525171
 C         2.701069        -0.357827        -2.109751
 C         2.968863        -1.604568        -2.971229
 O         1.770887        -2.091599        -3.388424
 C         0.651726        -1.226094        -3.192455
 C         1.228428        -0.096720        -2.180560
 H         0.689643         0.884837         1.231439
 H        -0.257021         1.304731        -0.287364
 H        -0.561140        -0.183557         0.572138
 H         3.251373        -0.040866         0.232441
 H         3.421278         0.475067        -2.476415
 H         3.628494        -1.363130        -3.766693
 H         3.462146        -2.445760        -2.508853
 H         0.358806        -0.674465        -4.103991
 H        -0.213084        -1.769347        -2.773373
 H         0.933495         0.884800        -2.509264
