19
Iteration:  4990charge 0 multiplicity 1
 C         0.207561         0.248047         0.300325
 C         1.250303        -0.203738        -0.712113
 O         1.684406        -1.510891        -0.324961
 C         2.659729        -0.447431        -0.586594
 C         2.918343        -0.322028        -2.147981
 C         2.927511        -1.602328        -2.987685
 O         1.698385        -2.138597        -3.186799
 C         0.705065        -1.169280        -3.077609
 C         1.310009        -0.094634        -2.194948
 H         0.877242         0.387359         1.266671
 H        -0.241800         1.113655        -0.053707
 H        -0.607010        -0.537766         0.355547
 H         3.401867        -0.118025         0.307756
 H         3.401918         0.608079        -2.404305
 H         3.351883        -1.310586        -3.925807
 H         3.522335        -2.285250        -2.517382
 H         0.548607        -0.736120        -4.117473
 H        -0.199185        -1.694008        -2.610259
 H         1.011106         0.924383        -2.461671
