19
Iteration:  1868
 C         0.236699         0.178294         0.412055
 C         1.204662        -0.233533        -0.654352
 O         2.342242        -1.250922        -0.333151
 C         2.626641         0.035196        -0.890604
 C         2.574525        -0.146081        -2.408800
 C         2.958084        -1.506169        -3.060440
 O         1.775366        -2.362157        -2.877249
 C         0.583596        -1.602928        -2.873819
 C         0.944415        -0.319466        -2.233228
 H        -0.562816         0.701390        -0.098397
 H        -0.207726        -0.619433         0.926912
 H         0.603159         0.800474         1.262120
 H         3.395907         0.823829        -0.285180
 H         2.974862         0.733945        -3.118790
 H         2.968551        -1.477802        -4.185281
 H         3.943118        -2.058143        -2.876122
 H         0.260163        -1.382170        -3.920735
 H        -0.174407        -2.261345        -2.489624
 H         0.329609         0.552295        -2.553506
