19
Iteration:  2820
 C         0.225727         0.121578         0.422068
 C         1.293964        -0.041372        -0.577231
 O         2.306916        -1.152374        -0.124647
 C         2.721799         0.026482        -0.892144
 C         2.482147        -0.226911        -2.447038
 C         2.918076        -1.533153        -3.082628
 O         1.775646        -2.417142        -3.078310
 C         0.617722        -1.649539        -2.948911
 C         0.941800        -0.313460        -2.218829
 H        -0.683575         0.453730        -0.125725
 H        -0.136168        -0.824670         0.686809
 H         0.532588         0.680205         1.284441
 H         3.435231         0.712758        -0.491959
 H         2.728581         0.676178        -3.067374
 H         3.320702        -1.311325        -4.097870
 H         3.715966        -1.974072        -2.397973
 H         0.119797        -1.383341        -4.010314
 H        -0.081490        -2.107151        -2.348445
 H         0.269789         0.457671        -2.465027
